LAMMPS (19 Mar 2020)
package omp 0
using multi-threaded neighbor list subroutines
package omp 4
set 4 OpenMP thread(s) per MPI task
using multi-threaded neighbor list subroutines
# units metal
# dimension 3
# boundary p p p

# lattice fcc 3.5440
# region box block 0 6 0 6 0 12 units lattice
# create_box 1 box
# create_atoms 1 box

read_restart after_right_melting_2500.lmp
  restoring atom style atomic from restart
  orthogonal box = (0 0 -2.86917) to (21.264 21.264 45.3972)
  pair style eam/alloy/omp stores no restart info
  1728 atoms
  read_restart CPU = 0.0902386 secs

# variable P equal 0
# variable dt equal 0.001
# variable loopVar loop 21

# print "step temp vol pe" file heating.txt screen no

pair_style eam/alloy
pair_coeff * * Co_Zhou04.eam.alloy Co
Reading potential file Co_Zhou04.eam.alloy with DATE: 2018-03-30

# write_data in.data

# lattice bcc 2.887902
# region box block  3 0 3 0 8 units lattice
# region left_cold block EDGE EDGE EDGE EDGE EDGE 23.5 units box
# region right_hot block EDGE EDGE EDGE EDGE 23.5 EDGE units box
# region middle_cold block INF INF INF INF 3 9 units lattice

#  2 6 units lattice
# region hot union 2 left_hot right_hot
group cold_atoms id  <= 864
864 atoms in group cold_atoms
group hot_atoms  id  >= 865
864 atoms in group hot_atoms

# set type 1 mass 1
variable dt equal 0.001
variable T equal 1600
variable sys_press equal "press/10000"

timestep $(dt)
timestep 0.0010000000000000000208
# pair_style eam/alloy
# pair_coeff * * Mishin-Ni-Al-2009.eam.alloy Ni Al
# pair_style lj/cut 10
# pair_coeff * * 1 1

# compute z_ini_chunk all chunk/atom bin/1d z lower 0.87 units box
# fix ini all ave/chunk 1 1 1 z_ini_chunk density/number file num_density_ini.txt
# run 0
# unfix ini
# write_data temp.data

# velocity all create $T 546445435 mom yes rot yes dist gaussian

# velocity hot_atoms create $T 546445435

# compute z_chunk all chunk/atom bin/1d z lower 0.8 units box
# fix 14 all ave/chunk 25000 1 25000 z_chunk density/number file num_density_$T.txt

# run 0
neighbor 2 bin

neigh_modify every 10 check yes

reset_timestep 0

fix 1 all npt temp $T $T $(dt*100) z 0 0 $(dt*1000)
fix 1 all npt temp 1600 $T $(dt*100) z 0 0 $(dt*1000)
fix 1 all npt temp 1600 1600 $(dt*100) z 0 0 $(dt*1000)
fix 1 all npt temp 1600 1600 0.10000000000000000555 z 0 0 $(dt*1000)
fix 1 all npt temp 1600 1600 0.10000000000000000555 z 0 0 1
  fix style: npt/omp, fix ID: 1
# fix 1 all nve

thermo 1000
thermo_style custom step temp vol press ke pe density v_sys_press

# fix 132 all momentum 100 linear 1 1 1 angular

dump 3 all custom 1000 right_melting_$T_.lammpstrj id type x y z
dump 3 all custom 1000 right_melting_1600_.lammpstrj id type x y z
# compute z_chunk all chunk/atom bin/1d z lower 0.87 units box
# fix 14 all ave/chunk 10000 1 10000 z_chunk density/number file num_density_z_$T.txt
# dump_modify 3 element Ni Al
run 100000
All restart file global fix info was re-assigned
Last active /omp style is pair_style eam/alloy/omp
  update every 10 steps, delay 10 steps, check yes
Step Temp Volume Press KinEng PotEng Density v_sys_press
0    2584.4058    21823.994    17097.958    576.92277   -6814.7537    7.7484906    1.7097958
Averages over the last 51 of 101 rows, steps 50000 to 100000:
Temp Volume Press KinEng PotEng Density v_sys_press
1600.1 20477.8 15599.6 357.193 -7205.66 8.25792 1.55996
Loop time of 721.163 on 8 procs for 100000 steps with 1728 atoms

write_data after_right_melting_$T_.in
write_data after_right_melting_1600_.in
Last active /omp style is pair_style eam/alloy/omp
write_restart after_right_melting_$T_.lmp
write_restart after_right_melting_1600_.lmp
Last active /omp style is pair_style eam/alloy/omp
compute z_chunk all chunk/atom bin/1d z lower 0.87 units box
fix 14 all ave/chunk 100000 1 100000 z_chunk density/number file num_density_z_$T_.txt
fix 14 all ave/chunk 100000 1 100000 z_chunk density/number file num_density_z_1600_.txt
run 0
Last active /omp style is pair_style eam/alloy/omp
Step Temp Volume Press KinEng PotEng Density v_sys_press
100000    1569.1183     20449.67    16724.618    350.27783   -7210.6417    8.2692294    1.6724618
Loop time of 2.70002e-06 on 8 procs for 0 steps with 1728 atoms

# neighbor 2 bin
# neigh_modify every 10 check yes

# thermo 1000
# thermo_style custom step temp vol press ke pe density

# # fix 2 all npt temp 300 300 $(dt*100) iso 0 0 $(dt*1000)
# # run 30000
# # unfix 2

# # dump_modify 1 append yes
# # dump 3 all custom 10000 traj_npt_new.lammpstrj id type x y z

# label ensemble

# velocity all create $T 123123
# reset_timestep 0
# fix 1 all npt temp $T $T $(dt*100) iso 0 0 $(dt*1000)
# print """
# <--------------------------------------------------------------------->
# <------------------ Equilibrating at temperature $T ----------------->
# <--------------------------------------------------------------------->
# """
# run 150000

# fix out_file_1 all print 1000 "$(step) $(temp) $(press) $(vol) $(ke) $(pe) $(density)" file one_phase_cooling_$T.txt screen no title  "step temp press vol ke pe density"
# # dump 3 all custom 1000 traj_npt_new.lammpstrj id type x y z
# run 50000

# unfix out_file_1
# unfix 1
# # # clear
# # write_data after_cooling_$T.in
# # write_restart after_cooling_$T.lmp
# next loopVar
# # # thermo_modify flush yes
# jump in.lmp ensemble
# # jump ensemble

# # write_data after_cooling_.in
# # write_restart after_cooling_.lmp
