LAMMPS (29 Oct 2020)
package omp 0
using multi-threaded neighbor list subroutines
package omp 2
set 2 OpenMP thread(s) per MPI task
using multi-threaded neighbor list subroutines
# units metal
# dimension 3
# boundary p p p

# lattice fcc 3.5440
# region box block 0 6 0 6 0 14 units lattice
# create_box 1 box
# create_atoms 1 box

read_restart _two_phase_press_0_6000_ini.lmp
Reading restart file ...
  restart file = 29 Oct 2020, LAMMPS = 29 Oct 2020
  restoring atom style atomic from restart
  orthogonal box = (-0.67452257 -0.67452257 -1.5738860) to (21.938523 21.938523 51.189886)
  pair style eam/alloy/omp stores no restart info
  2016 atoms
  read_restart CPU = 0.003 seconds

variable P equal 800000
variable dt equal 0.001
variable T equal 3700
variable sys_press equal "press/10000"
variable sim string "heating"
#variable temp_word equal "heating"

group cold_atoms id  <= 1008
1008 atoms in group cold_atoms
group hot_atoms  id  > 1008
1008 atoms in group hot_atoms

# print "step temp vol pe" file heating.txt screen no

pair_style eam/alloy
pair_coeff * * Co_Zhou04.eam.alloy Co
Reading eam/alloy potential file Co_Zhou04.eam.alloy with DATE: 2018-03-30

neighbor 2 bin
neigh_modify every 10 check yes

thermo 1000
thermo_style custom step temp vol press ke pe density

timestep $(dt)
timestep 0.0010000000000000000208

velocity all create $T 123123
velocity all create 3700 123123
# velocity hot_atoms create $T 123123

print """
yo aagadi
"""

yo aagadi

label ensemble

print """
Label pachadi solti, hos garam.
"""

Label pachadi solti, hos garam.

reset_timestep 0
# fix 1 hot_atoms npt temp $T $T $(dt*100) iso $P $P $(dt*1000)
fix 1 all npt temp $T $T $(dt*100) iso $P $P $(dt*1000)
fix 1 all npt temp 3700 $T $(dt*100) iso $P $P $(dt*1000)
fix 1 all npt temp 3700 3700 $(dt*100) iso $P $P $(dt*1000)
fix 1 all npt temp 3700 3700 0.10000000000000000555 iso $P $P $(dt*1000)
fix 1 all npt temp 3700 3700 0.10000000000000000555 iso 800000 $P $(dt*1000)
fix 1 all npt temp 3700 3700 0.10000000000000000555 iso 800000 800000 $(dt*1000)
fix 1 all npt temp 3700 3700 0.10000000000000000555 iso 800000 800000 1
  fix style: npt/omp, fix ID: 1
# fix 1 all nvt temp $T $T $(dt*100)
print """
<--------------------------------------------------------------------->
<------------------ Equilibrating at temperature $T ----------------->
<--------------------------------------------------------------------->
"""

<--------------------------------------------------------------------->
<------------------ Equilibrating at temperature 3700 ----------------->
<--------------------------------------------------------------------->

dump 3 all custom 1000 traj_npt_$P_$T.lammpstrj id type x y z vx vy vz
dump 3 all custom 1000 traj_npt_800000_$T.lammpstrj id type x y z vx vy vz
dump 3 all custom 1000 traj_npt_800000_3700.lammpstrj id type x y z vx vy vz
run 100000
All restart file global fix info was re-assigned
Last active /omp style is pair_style eam/alloy/omp
  update every 10 steps, delay 10 steps, check yes
Step Temp Volume Press KinEng PotEng Density
0         3700    26980.745   -23325.254    963.69901   -7765.3549     7.312135
Averages over the last 51 of 101 rows, steps 50000 to 100000:
Temp Volume Press KinEng PotEng Density
3704.31 18790.6 798767 964.823 -7186.19 10.4996
Loop time of 282.764 on 8 procs for 100000 steps with 2016 atoms

# fix 132 all momentum 100 linear 1 1 1 angular

# dump 3 all custom 1000 traj_npt_ini_$P_$T.lammpstrj id type x y z vx vy vz

# compute myRDF all rdf 50
# fix myrdf all ave/time 300000 1 300000 c_myRDF[*] file rd.rdf mode vector
run 50000
Last active /omp style is pair_style eam/alloy/omp
Step Temp Volume Press KinEng PotEng Density
100000    3707.3447    18544.849    813561.49      965.612   -7297.9385    10.638364
Averages over the last 26 of 51 rows, steps 125000 to 150000:
Temp Volume Press KinEng PotEng Density
3689.28 18584 800990 960.908 -7327.81 10.616
Loop time of 139.466 on 8 procs for 50000 steps with 2016 atoms

unfix temp
unfix out_file_1
# unfix myrdf

write_data two_phase_press_$P_$T_ini.in
write_data two_phase_press_800000_$T_ini.in
write_data two_phase_press_800000_3700_ini.in
System init for write_data ...
Last active /omp style is pair_style eam/alloy/omp
write_restart two_phase_press_$P_$T_ini.lmp
write_restart two_phase_press_800000_$T_ini.lmp
write_restart two_phase_press_800000_3700_ini.lmp
System init for write_restart ...
Last active /omp style is pair_style eam/alloy/omp
# next loopVar
# jump in.lmp ensemble
