LAMMPS (29 Oct 2020)
package omp 0
using multi-threaded neighbor list subroutines
package omp 2
set 2 OpenMP thread(s) per MPI task
using multi-threaded neighbor list subroutines
units metal  #<----->
dimension 3
boundary p p p

lattice fcc 3.5440
Lattice spacing in x,y,z = 3.5440000 3.5440000 3.5440000
region box block 0 8 0 8 0 8 units lattice
create_box 1 box
Created orthogonal box = (0.0000000 0.0000000 0.0000000) to (28.352000 28.352000 28.352000)
create_atoms 1 box
Created 2048 atoms

# # read_restart after_heating_press_500000_4200.lmp  #<----->
# read_restart after_cooling_press_500000_2300.lmp

variable P equal 800000     #<----->
variable dt equal 0.001
variable loopVar loop 6
variable sys_press equal "press/10000"

variable sim string "heating"  #<----->
# variable sim string "cooling"

pair_style eam/alloy
pair_coeff * * Co_Zhou04.eam.alloy Co
Reading eam/alloy potential file Co_Zhou04.eam.alloy with DATE: 2018-03-30

neighbor 2 bin
neigh_modify every 10 check yes

thermo 1000
thermo_style custom step temp vol press ke pe density

timestep $(dt)
timestep 0.0010000000000000000208

velocity all create 4800 123123 #<----->

print """
yo aagadi
"""

yo aagadi

label ensemble

print """
Label pachadi solti, hos garam.
"""

Label pachadi solti, hos garam.

variable T equal 4700+1*100
# variable T equal 2250

reset_timestep 0
fix 1 all npt temp $T $T $(dt*100) iso $P $P $(dt*1000)
fix 1 all npt temp 4800 $T $(dt*100) iso $P $P $(dt*1000)
fix 1 all npt temp 4800 4800 $(dt*100) iso $P $P $(dt*1000)
fix 1 all npt temp 4800 4800 0.10000000000000000555 iso $P $P $(dt*1000)
fix 1 all npt temp 4800 4800 0.10000000000000000555 iso 800000 $P $(dt*1000)
fix 1 all npt temp 4800 4800 0.10000000000000000555 iso 800000 800000 $(dt*1000)
fix 1 all npt temp 4800 4800 0.10000000000000000555 iso 800000 800000 1
print """
<--------------------------------------------------------------------->
<------------------ Equilibrating at temperature $T ----------------->
<--------------------------------------------------------------------->
"""

<--------------------------------------------------------------------->
<------------------ Equilibrating at temperature 4800 ----------------->
<--------------------------------------------------------------------->

run 250000
Last active /omp style is pair_style eam/alloy/omp
  update every 10 steps, delay 10 steps, check yes
Step Temp Volume Press KinEng PotEng Density
0         4800    22790.356    67204.154    1270.0585    -9015.757        8.794
Averages over the last 126 of 251 rows, steps 125000 to 250000:
Temp Volume Press KinEng PotEng Density
4793.3 19734.9 800831 1268.29 -6900.3 10.1556
Loop time of 517.764 on 8 procs for 250000 steps with 2048 atoms

# fix 132 all momentum 100 linear 1 1 1 angular

# dump 3 all custom 1000 traj_npt_new.lammpstrj id type x y z
run 50000
Last active /omp style is pair_style eam/alloy/omp
Step Temp Volume Press KinEng PotEng Density
250000     4796.688    19730.824    796700.17    1269.1821   -6924.4723    10.157629
Averages over the last 26 of 51 rows, steps 275000 to 300000:
Temp Volume Press KinEng PotEng Density
4815.84 19718.2 802834 1274.25 -6902.27 10.1643
Loop time of 109.766 on 8 procs for 50000 steps with 2048 atoms

unfix temp
unfix out_file_1

write_data after_heating_press_$P_$T.in
write_data after_heating_press_800000_$T.in
write_data after_heating_press_800000_4800.in
System init for write_data ...
Last active /omp style is pair_style eam/alloy/omp
write_restart after_heating_press_$P_$T.lmp
write_restart after_heating_press_800000_$T.lmp
write_restart after_heating_press_800000_4800.lmp
System init for write_restart ...
Last active /omp style is pair_style eam/alloy/omp

next loopVar  #<----->
jump in.lmp ensemble

print """
Label pachadi solti, hos garam.
"""

Label pachadi solti, hos garam.

variable T equal 4700+2*100
# variable T equal 2250

reset_timestep 0
fix 1 all npt temp $T $T $(dt*100) iso $P $P $(dt*1000)
fix 1 all npt temp 4900 $T $(dt*100) iso $P $P $(dt*1000)
fix 1 all npt temp 4900 4900 $(dt*100) iso $P $P $(dt*1000)
fix 1 all npt temp 4900 4900 0.10000000000000000555 iso $P $P $(dt*1000)
fix 1 all npt temp 4900 4900 0.10000000000000000555 iso 800000 $P $(dt*1000)
fix 1 all npt temp 4900 4900 0.10000000000000000555 iso 800000 800000 $(dt*1000)
fix 1 all npt temp 4900 4900 0.10000000000000000555 iso 800000 800000 1
print """
<--------------------------------------------------------------------->
<------------------ Equilibrating at temperature $T ----------------->
<--------------------------------------------------------------------->
"""

<--------------------------------------------------------------------->
<------------------ Equilibrating at temperature 4900 ----------------->
<--------------------------------------------------------------------->

run 250000
Last active /omp style is pair_style eam/alloy/omp
Step Temp Volume Press KinEng PotEng Density
0    4785.1974    19744.691    790150.77    1266.1418   -6939.5038    10.150495
Averages over the last 126 of 251 rows, steps 125000 to 250000:
Temp Volume Press KinEng PotEng Density
4894.3 19776.7 798925 1295.01 -6888.17 10.1341
Loop time of 548.599 on 8 procs for 250000 steps with 2048 atoms

# fix 132 all momentum 100 linear 1 1 1 angular

# dump 3 all custom 1000 traj_npt_new.lammpstrj id type x y z
run 50000
Last active /omp style is pair_style eam/alloy/omp
Step Temp Volume Press KinEng PotEng Density
250000    4953.9967    19679.836    818598.32    1310.8053   -6855.2487    10.183946
Averages over the last 26 of 51 rows, steps 275000 to 300000:
Temp Volume Press KinEng PotEng Density
4870.58 19776.6 799860 1288.73 -6882.63 10.1342
Loop time of 108.035 on 8 procs for 50000 steps with 2048 atoms

unfix temp
unfix out_file_1

write_data after_heating_press_$P_$T.in
write_data after_heating_press_800000_$T.in
write_data after_heating_press_800000_4900.in
System init for write_data ...
Last active /omp style is pair_style eam/alloy/omp
write_restart after_heating_press_$P_$T.lmp
write_restart after_heating_press_800000_$T.lmp
write_restart after_heating_press_800000_4900.lmp
System init for write_restart ...
Last active /omp style is pair_style eam/alloy/omp

next loopVar  #<----->
jump in.lmp ensemble

print """
Label pachadi solti, hos garam.
"""

Label pachadi solti, hos garam.

variable T equal 4700+3*100
# variable T equal 2250

reset_timestep 0
fix 1 all npt temp $T $T $(dt*100) iso $P $P $(dt*1000)
fix 1 all npt temp 5000 $T $(dt*100) iso $P $P $(dt*1000)
fix 1 all npt temp 5000 5000 $(dt*100) iso $P $P $(dt*1000)
fix 1 all npt temp 5000 5000 0.10000000000000000555 iso $P $P $(dt*1000)
fix 1 all npt temp 5000 5000 0.10000000000000000555 iso 800000 $P $(dt*1000)
fix 1 all npt temp 5000 5000 0.10000000000000000555 iso 800000 800000 $(dt*1000)
fix 1 all npt temp 5000 5000 0.10000000000000000555 iso 800000 800000 1
print """
<--------------------------------------------------------------------->
<------------------ Equilibrating at temperature $T ----------------->
<--------------------------------------------------------------------->
"""

<--------------------------------------------------------------------->
<------------------ Equilibrating at temperature 5000 ----------------->
<--------------------------------------------------------------------->

run 250000
Last active /omp style is pair_style eam/alloy/omp
Step Temp Volume Press KinEng PotEng Density
0    4819.4256    19719.924    800626.99    1275.1984   -6910.5204    10.163243
Averages over the last 126 of 251 rows, steps 125000 to 250000:
Temp Volume Press KinEng PotEng Density
5003.03 19814.6 798993 1323.78 -6869.18 10.1148
Loop time of 581.751 on 8 procs for 250000 steps with 2048 atoms

# fix 132 all momentum 100 linear 1 1 1 angular

# dump 3 all custom 1000 traj_npt_new.lammpstrj id type x y z
run 50000
Last active /omp style is pair_style eam/alloy/omp
Step Temp Volume Press KinEng PotEng Density
250000    4804.8517    19808.044    799684.76    1271.3422   -6862.2297     10.11803
Averages over the last 26 of 51 rows, steps 275000 to 300000:
Temp Volume Press KinEng PotEng Density
5020.55 19814.7 797279 1328.42 -6880.14 10.1147
Loop time of 138.123 on 8 procs for 50000 steps with 2048 atoms

unfix temp
unfix out_file_1

write_data after_heating_press_$P_$T.in
write_data after_heating_press_800000_$T.in
write_data after_heating_press_800000_5000.in
System init for write_data ...
Last active /omp style is pair_style eam/alloy/omp
write_restart after_heating_press_$P_$T.lmp
write_restart after_heating_press_800000_$T.lmp
write_restart after_heating_press_800000_5000.lmp
System init for write_restart ...
Last active /omp style is pair_style eam/alloy/omp

next loopVar  #<----->
jump in.lmp ensemble

print """
Label pachadi solti, hos garam.
"""

Label pachadi solti, hos garam.

variable T equal 4700+4*100
# variable T equal 2250

reset_timestep 0
fix 1 all npt temp $T $T $(dt*100) iso $P $P $(dt*1000)
fix 1 all npt temp 5100 $T $(dt*100) iso $P $P $(dt*1000)
fix 1 all npt temp 5100 5100 $(dt*100) iso $P $P $(dt*1000)
fix 1 all npt temp 5100 5100 0.10000000000000000555 iso $P $P $(dt*1000)
fix 1 all npt temp 5100 5100 0.10000000000000000555 iso 800000 $P $(dt*1000)
fix 1 all npt temp 5100 5100 0.10000000000000000555 iso 800000 800000 $(dt*1000)
fix 1 all npt temp 5100 5100 0.10000000000000000555 iso 800000 800000 1
print """
<--------------------------------------------------------------------->
<------------------ Equilibrating at temperature $T ----------------->
<--------------------------------------------------------------------->
"""

<--------------------------------------------------------------------->
<------------------ Equilibrating at temperature 5100 ----------------->
<--------------------------------------------------------------------->

run 250000
Last active /omp style is pair_style eam/alloy/omp
Step Temp Volume Press KinEng PotEng Density
0    4976.0576     19777.82    809306.62    1316.6425   -6834.6406    10.133493
Averages over the last 126 of 251 rows, steps 125000 to 250000:
Temp Volume Press KinEng PotEng Density
5107.43 19835 800983 1351.4 -6852.45 10.1044
Loop time of 688.573 on 8 procs for 250000 steps with 2048 atoms

# fix 132 all momentum 100 linear 1 1 1 angular

# dump 3 all custom 1000 traj_npt_new.lammpstrj id type x y z
run 50000
Last active /omp style is pair_style eam/alloy/omp
Step Temp Volume Press KinEng PotEng Density
250000    5076.6179    19745.781    813004.07    1343.2503    -6856.722    10.149935
Averages over the last 26 of 51 rows, steps 275000 to 300000:
Temp Volume Press KinEng PotEng Density
5115.59 19842.7 798775 1353.56 -6860.7 10.1005
Loop time of 112.925 on 8 procs for 50000 steps with 2048 atoms

unfix temp
unfix out_file_1

write_data after_heating_press_$P_$T.in
write_data after_heating_press_800000_$T.in
write_data after_heating_press_800000_5100.in
System init for write_data ...
Last active /omp style is pair_style eam/alloy/omp
write_restart after_heating_press_$P_$T.lmp
write_restart after_heating_press_800000_$T.lmp
write_restart after_heating_press_800000_5100.lmp
System init for write_restart ...
Last active /omp style is pair_style eam/alloy/omp

next loopVar  #<----->
jump in.lmp ensemble

print """
Label pachadi solti, hos garam.
"""

Label pachadi solti, hos garam.

variable T equal 4700+5*100
# variable T equal 2250

reset_timestep 0
fix 1 all npt temp $T $T $(dt*100) iso $P $P $(dt*1000)
fix 1 all npt temp 5200 $T $(dt*100) iso $P $P $(dt*1000)
fix 1 all npt temp 5200 5200 $(dt*100) iso $P $P $(dt*1000)
fix 1 all npt temp 5200 5200 0.10000000000000000555 iso $P $P $(dt*1000)
fix 1 all npt temp 5200 5200 0.10000000000000000555 iso 800000 $P $(dt*1000)
fix 1 all npt temp 5200 5200 0.10000000000000000555 iso 800000 800000 $(dt*1000)
fix 1 all npt temp 5200 5200 0.10000000000000000555 iso 800000 800000 1
print """
<--------------------------------------------------------------------->
<------------------ Equilibrating at temperature $T ----------------->
<--------------------------------------------------------------------->
"""

<--------------------------------------------------------------------->
<------------------ Equilibrating at temperature 5200 ----------------->
<--------------------------------------------------------------------->

run 250000
Last active /omp style is pair_style eam/alloy/omp
Step Temp Volume Press KinEng PotEng Density
0    5227.0765    19810.255    802178.81     1383.061   -6864.2908    10.116901
Averages over the last 34 of 68 rows, steps 34000 to 67000:
Temp Volume Press KinEng PotEng Density
5190.58 19858.6 802882 1373.41 -6832.65 10.0924
