LAMMPS (29 Oct 2020)
package omp 0
using multi-threaded neighbor list subroutines
package omp 2
set 2 OpenMP thread(s) per MPI task
using multi-threaded neighbor list subroutines
units metal  #<----->
dimension 3
boundary p p p

lattice fcc 3.5440
Lattice spacing in x,y,z = 3.5440000 3.5440000 3.5440000
region box block 0 8 0 8 0 8 units lattice
create_box 1 box
Created orthogonal box = (0.0000000 0.0000000 0.0000000) to (28.352000 28.352000 28.352000)
create_atoms 1 box
Created 2048 atoms

# # read_restart after_heating_press_500000_4200.lmp  #<----->
# read_restart after_cooling_press_500000_2300.lmp

variable P equal 800000     #<----->
variable dt equal 0.001
variable loopVar loop 3
variable sys_press equal "press/10000"

variable sim string "heating"  #<----->
# variable sim string "cooling"

pair_style eam/alloy
pair_coeff * * Co_Zhou04.eam.alloy Co
Reading eam/alloy potential file Co_Zhou04.eam.alloy with DATE: 2018-03-30

neighbor 2 bin
neigh_modify every 10 check yes

thermo 1000
thermo_style custom step temp vol press ke pe density

timestep $(dt)
timestep 0.0010000000000000000208

velocity all create 4800 123123 #<----->

print """
yo aagadi
"""

yo aagadi

label ensemble

print """
Label pachadi solti, hos garam.
"""

Label pachadi solti, hos garam.

variable T equal 4400+1*100
# variable T equal 2250

reset_timestep 0
fix 1 all npt temp $T $T $(dt*100) iso $P $P $(dt*1000)
fix 1 all npt temp 4500 $T $(dt*100) iso $P $P $(dt*1000)
fix 1 all npt temp 4500 4500 $(dt*100) iso $P $P $(dt*1000)
fix 1 all npt temp 4500 4500 0.10000000000000000555 iso $P $P $(dt*1000)
fix 1 all npt temp 4500 4500 0.10000000000000000555 iso 800000 $P $(dt*1000)
fix 1 all npt temp 4500 4500 0.10000000000000000555 iso 800000 800000 $(dt*1000)
fix 1 all npt temp 4500 4500 0.10000000000000000555 iso 800000 800000 1
print """
<--------------------------------------------------------------------->
<------------------ Equilibrating at temperature $T ----------------->
<--------------------------------------------------------------------->
"""

<--------------------------------------------------------------------->
<------------------ Equilibrating at temperature 4500 ----------------->
<--------------------------------------------------------------------->

run 250000
Last active /omp style is pair_style eam/alloy/omp
  update every 10 steps, delay 10 steps, check yes
Step Temp Volume Press KinEng PotEng Density
0         4800    22790.356    67204.154    1270.0585    -9015.757        8.794
Averages over the last 126 of 251 rows, steps 125000 to 250000:
Temp Volume Press KinEng PotEng Density
4487.41 19191.7 799597 1187.35 -7273.94 10.4431
Loop time of 555.609 on 8 procs for 250000 steps with 2048 atoms

# fix 132 all momentum 100 linear 1 1 1 angular

# dump 3 all custom 1000 traj_npt_new.lammpstrj id type x y z
run 50000
Last active /omp style is pair_style eam/alloy/omp
Step Temp Volume Press KinEng PotEng Density
250000    4442.5804    19278.937     782023.7    1175.4869   -7297.7949    10.395718
Averages over the last 26 of 51 rows, steps 275000 to 300000:
Temp Volume Press KinEng PotEng Density
4499.82 19186.6 800941 1190.63 -7272.53 10.4458
Loop time of 113.139 on 8 procs for 50000 steps with 2048 atoms

unfix temp
unfix out_file_1

write_data after_heating_press_$P_$T.in
write_data after_heating_press_800000_$T.in
write_data after_heating_press_800000_4500.in
System init for write_data ...
Last active /omp style is pair_style eam/alloy/omp
write_restart after_heating_press_$P_$T.lmp
write_restart after_heating_press_800000_$T.lmp
write_restart after_heating_press_800000_4500.lmp
System init for write_restart ...
Last active /omp style is pair_style eam/alloy/omp

next loopVar  #<----->
jump in.lmp ensemble

print """
Label pachadi solti, hos garam.
"""

Label pachadi solti, hos garam.

variable T equal 4400+2*100
# variable T equal 2250

reset_timestep 0
fix 1 all npt temp $T $T $(dt*100) iso $P $P $(dt*1000)
fix 1 all npt temp 4600 $T $(dt*100) iso $P $P $(dt*1000)
fix 1 all npt temp 4600 4600 $(dt*100) iso $P $P $(dt*1000)
fix 1 all npt temp 4600 4600 0.10000000000000000555 iso $P $P $(dt*1000)
fix 1 all npt temp 4600 4600 0.10000000000000000555 iso 800000 $P $(dt*1000)
fix 1 all npt temp 4600 4600 0.10000000000000000555 iso 800000 800000 $(dt*1000)
fix 1 all npt temp 4600 4600 0.10000000000000000555 iso 800000 800000 1
print """
<--------------------------------------------------------------------->
<------------------ Equilibrating at temperature $T ----------------->
<--------------------------------------------------------------------->
"""

<--------------------------------------------------------------------->
<------------------ Equilibrating at temperature 4600 ----------------->
<--------------------------------------------------------------------->

run 250000
Last active /omp style is pair_style eam/alloy/omp
Step Temp Volume Press KinEng PotEng Density
0    4450.5212    19166.284    795893.82     1177.588   -7310.5461     10.45682
Averages over the last 126 of 251 rows, steps 125000 to 250000:
Temp Volume Press KinEng PotEng Density
4592.37 19661.7 800324 1215.12 -6940.06 10.1934
Loop time of 556.585 on 8 procs for 250000 steps with 2048 atoms

# fix 132 all momentum 100 linear 1 1 1 angular

# dump 3 all custom 1000 traj_npt_new.lammpstrj id type x y z
run 50000
Last active /omp style is pair_style eam/alloy/omp
Step Temp Volume Press KinEng PotEng Density
250000    4577.8104    19654.275     801348.8    1211.2681   -6937.3937    10.197191
Averages over the last 26 of 51 rows, steps 275000 to 300000:
Temp Volume Press KinEng PotEng Density
4596.47 19659.7 801729 1216.21 -6933.17 10.1945
Loop time of 108.915 on 8 procs for 50000 steps with 2048 atoms

unfix temp
unfix out_file_1

write_data after_heating_press_$P_$T.in
write_data after_heating_press_800000_$T.in
write_data after_heating_press_800000_4600.in
System init for write_data ...
Last active /omp style is pair_style eam/alloy/omp
write_restart after_heating_press_$P_$T.lmp
write_restart after_heating_press_800000_$T.lmp
write_restart after_heating_press_800000_4600.lmp
System init for write_restart ...
Last active /omp style is pair_style eam/alloy/omp

next loopVar  #<----->
jump in.lmp ensemble

print """
Label pachadi solti, hos garam.
"""

Label pachadi solti, hos garam.

variable T equal 4400+3*100
# variable T equal 2250

reset_timestep 0
fix 1 all npt temp $T $T $(dt*100) iso $P $P $(dt*1000)
fix 1 all npt temp 4700 $T $(dt*100) iso $P $P $(dt*1000)
fix 1 all npt temp 4700 4700 $(dt*100) iso $P $P $(dt*1000)
fix 1 all npt temp 4700 4700 0.10000000000000000555 iso $P $P $(dt*1000)
fix 1 all npt temp 4700 4700 0.10000000000000000555 iso 800000 $P $(dt*1000)
fix 1 all npt temp 4700 4700 0.10000000000000000555 iso 800000 800000 $(dt*1000)
fix 1 all npt temp 4700 4700 0.10000000000000000555 iso 800000 800000 1
print """
<--------------------------------------------------------------------->
<------------------ Equilibrating at temperature $T ----------------->
<--------------------------------------------------------------------->
"""

<--------------------------------------------------------------------->
<------------------ Equilibrating at temperature 4700 ----------------->
<--------------------------------------------------------------------->

run 250000
Last active /omp style is pair_style eam/alloy/omp
Step Temp Volume Press KinEng PotEng Density
0    4454.8391    19652.602    801218.47    1178.7304   -6930.6857    10.198059
Averages over the last 126 of 251 rows, steps 125000 to 250000:
Temp Volume Press KinEng PotEng Density
4698.78 19699.5 800274 1243.28 -6920.83 10.1738
Loop time of 564.301 on 8 procs for 250000 steps with 2048 atoms

# fix 132 all momentum 100 linear 1 1 1 angular

# dump 3 all custom 1000 traj_npt_new.lammpstrj id type x y z
run 50000
Last active /omp style is pair_style eam/alloy/omp
Step Temp Volume Press KinEng PotEng Density
250000    4692.7112     19653.96    808097.56    1241.6703   -6915.4314    10.197354
Averages over the last 26 of 51 rows, steps 275000 to 300000:
Temp Volume Press KinEng PotEng Density
4715.15 19703 798132 1247.61 -6930.39 10.172
Loop time of 110.727 on 8 procs for 50000 steps with 2048 atoms

unfix temp
unfix out_file_1

write_data after_heating_press_$P_$T.in
write_data after_heating_press_800000_$T.in
write_data after_heating_press_800000_4700.in
System init for write_data ...
Last active /omp style is pair_style eam/alloy/omp
write_restart after_heating_press_$P_$T.lmp
write_restart after_heating_press_800000_$T.lmp
write_restart after_heating_press_800000_4700.lmp
System init for write_restart ...
Last active /omp style is pair_style eam/alloy/omp

next loopVar  #<----->
jump in.lmp ensemble
