LAMMPS (29 Oct 2020)
package omp 0
using multi-threaded neighbor list subroutines
package omp 2
set 2 OpenMP thread(s) per MPI task
using multi-threaded neighbor list subroutines
units metal
dimension 3
boundary p p p

lattice fcc 3.5440
Lattice spacing in x,y,z = 3.5440000 3.5440000 3.5440000
region box block 0 8 0 8 0 8 units lattice
create_box 1 box
Created orthogonal box = (0.0000000 0.0000000 0.0000000) to (28.352000 28.352000 28.352000)
create_atoms 1 box
Created 2048 atoms

# read_restart after_heating_2400.lmp

variable P equal 0
variable dt equal 0.001
variable loopVar loop 22
variable sys_press equal "press/10000"
# print "step temp vol pe" file heating.txt screen no

pair_style eam/alloy
pair_coeff * * Co_Zhou04.eam.alloy Co
Reading eam/alloy potential file Co_Zhou04.eam.alloy with DATE: 2018-03-30

neighbor 2 bin
neigh_modify every 10 check yes

thermo 1000
thermo_style custom step temp vol press ke pe density

timestep $(dt)
timestep 0.0010000000000000000208

# fix 2 all npt temp 300 300 $(dt*100) iso 0 0 $(dt*1000)
# run 30000
# unfix 2

# dump_modify 1 append yes
# dump 3 all custom 10000 traj_npt_new.lammpstrj id type x y z

velocity all create 300 123123

print """
yo aagadi
"""

yo aagadi

label ensemble

print """
Label pachadi solti, hos garam.
"""

Label pachadi solti, hos garam.

variable T equal 200+1*100
# variable T equal 1200
# velocity all create 1200 123123
reset_timestep 0
fix 1 all npt temp $T $T $(dt*100) iso 0 0 $(dt*1000)
fix 1 all npt temp 300 $T $(dt*100) iso 0 0 $(dt*1000)
fix 1 all npt temp 300 300 $(dt*100) iso 0 0 $(dt*1000)
fix 1 all npt temp 300 300 0.10000000000000000555 iso 0 0 $(dt*1000)
fix 1 all npt temp 300 300 0.10000000000000000555 iso 0 0 1
print """
<--------------------------------------------------------------------->
<------------------ Equilibrating at temperature $T ----------------->
<--------------------------------------------------------------------->
"""

<--------------------------------------------------------------------->
<------------------ Equilibrating at temperature 300 ----------------->
<--------------------------------------------------------------------->

run 250000
Last active /omp style is pair_style eam/alloy/omp
  update every 10 steps, delay 10 steps, check yes
Step Temp Volume Press KinEng PotEng Density
0          300    22790.356    11400.454    79.378655    -9015.757        8.794
Averages over the last 126 of 251 rows, steps 125000 to 250000:
Temp Volume Press KinEng PotEng Density
300.203 23165.9 133.783 79.4324 -8935.52 8.65144
Loop time of 493.157 on 8 procs for 250000 steps with 2048 atoms

# fix 132 all momentum 100 linear 1 1 1 angular

# dump 3 all custom 1000 traj_npt_new.lammpstrj id type x y z
run 50000
Last active /omp style is pair_style eam/alloy/omp
Step Temp Volume Press KinEng PotEng Density
250000    297.37311    23172.983   -402.81934    78.683593   -8935.5757    8.6487953
Averages over the last 26 of 51 rows, steps 275000 to 300000:
Temp Volume Press KinEng PotEng Density
300.449 23152.7 1124.42 79.4976 -8935.52 8.6564
Loop time of 99.6067 on 8 procs for 50000 steps with 2048 atoms

unfix temp
unfix out_file_1
# unfix 1
# # clear
write_data after_heating_$T.in
write_data after_heating_300.in
System init for write_data ...
Last active /omp style is pair_style eam/alloy/omp
write_restart after_heating_$T.lmp
write_restart after_heating_300.lmp
System init for write_restart ...
Last active /omp style is pair_style eam/alloy/omp
next loopVar
# # # thermo_modify flush yes
jump in.lmp ensemble

print """
Label pachadi solti, hos garam.
"""

Label pachadi solti, hos garam.

variable T equal 200+2*100
# variable T equal 1200
# velocity all create 1200 123123
reset_timestep 0
fix 1 all npt temp $T $T $(dt*100) iso 0 0 $(dt*1000)
fix 1 all npt temp 400 $T $(dt*100) iso 0 0 $(dt*1000)
fix 1 all npt temp 400 400 $(dt*100) iso 0 0 $(dt*1000)
fix 1 all npt temp 400 400 0.10000000000000000555 iso 0 0 $(dt*1000)
fix 1 all npt temp 400 400 0.10000000000000000555 iso 0 0 1
print """
<--------------------------------------------------------------------->
<------------------ Equilibrating at temperature $T ----------------->
<--------------------------------------------------------------------->
"""

<--------------------------------------------------------------------->
<------------------ Equilibrating at temperature 400 ----------------->
<--------------------------------------------------------------------->

run 250000
Last active /omp style is pair_style eam/alloy/omp
Step Temp Volume Press KinEng PotEng Density
0    311.48726    23158.824    1010.1099    82.418131   -8934.7176    8.6540829
Averages over the last 126 of 251 rows, steps 125000 to 250000:
Temp Volume Press KinEng PotEng Density
400.019 23261.2 157.742 105.843 -8907.73 8.61601
Loop time of 512.301 on 8 procs for 250000 steps with 2048 atoms

# fix 132 all momentum 100 linear 1 1 1 angular

# dump 3 all custom 1000 traj_npt_new.lammpstrj id type x y z
run 50000
Last active /omp style is pair_style eam/alloy/omp
Step Temp Volume Press KinEng PotEng Density
250000    404.05683    23193.753    4564.3514    106.91163   -8910.7966    8.6410504
Averages over the last 26 of 51 rows, steps 275000 to 300000:
Temp Volume Press KinEng PotEng Density
399.324 23261.4 67.3752 105.659 -8908.01 8.61595
Loop time of 101.291 on 8 procs for 50000 steps with 2048 atoms

unfix temp
unfix out_file_1
# unfix 1
# # clear
write_data after_heating_$T.in
write_data after_heating_400.in
System init for write_data ...
Last active /omp style is pair_style eam/alloy/omp
write_restart after_heating_$T.lmp
write_restart after_heating_400.lmp
System init for write_restart ...
Last active /omp style is pair_style eam/alloy/omp
next loopVar
# # # thermo_modify flush yes
jump in.lmp ensemble

print """
Label pachadi solti, hos garam.
"""

Label pachadi solti, hos garam.

variable T equal 200+3*100
# variable T equal 1200
# velocity all create 1200 123123
reset_timestep 0
fix 1 all npt temp $T $T $(dt*100) iso 0 0 $(dt*1000)
fix 1 all npt temp 500 $T $(dt*100) iso 0 0 $(dt*1000)
fix 1 all npt temp 500 500 $(dt*100) iso 0 0 $(dt*1000)
fix 1 all npt temp 500 500 0.10000000000000000555 iso 0 0 $(dt*1000)
fix 1 all npt temp 500 500 0.10000000000000000555 iso 0 0 1
print """
<--------------------------------------------------------------------->
<------------------ Equilibrating at temperature $T ----------------->
<--------------------------------------------------------------------->
"""

<--------------------------------------------------------------------->
<------------------ Equilibrating at temperature 500 ----------------->
<--------------------------------------------------------------------->

run 250000
Last active /omp style is pair_style eam/alloy/omp
Step Temp Volume Press KinEng PotEng Density
0    391.78249    23278.313   -465.39593    103.66389    -8904.481    8.6096611
Averages over the last 126 of 251 rows, steps 125000 to 250000:
Temp Volume Press KinEng PotEng Density
499.786 23359.2 -59.3123 132.241 -8879.99 8.57986
Loop time of 578.924 on 8 procs for 250000 steps with 2048 atoms

# fix 132 all momentum 100 linear 1 1 1 angular

# dump 3 all custom 1000 traj_npt_new.lammpstrj id type x y z
run 50000
Last active /omp style is pair_style eam/alloy/omp
Step Temp Volume Press KinEng PotEng Density
250000     505.3369    23360.927    283.22406    133.70988   -8878.1684    8.5792139
Averages over the last 26 of 51 rows, steps 275000 to 300000:
Temp Volume Press KinEng PotEng Density
500.706 23358.4 1.18123 132.485 -8880.12 8.58017
Loop time of 102.579 on 8 procs for 50000 steps with 2048 atoms

unfix temp
unfix out_file_1
# unfix 1
# # clear
write_data after_heating_$T.in
write_data after_heating_500.in
System init for write_data ...
Last active /omp style is pair_style eam/alloy/omp
write_restart after_heating_$T.lmp
write_restart after_heating_500.lmp
System init for write_restart ...
Last active /omp style is pair_style eam/alloy/omp
next loopVar
# # # thermo_modify flush yes
jump in.lmp ensemble

print """
Label pachadi solti, hos garam.
"""

Label pachadi solti, hos garam.

variable T equal 200+4*100
# variable T equal 1200
# velocity all create 1200 123123
reset_timestep 0
fix 1 all npt temp $T $T $(dt*100) iso 0 0 $(dt*1000)
fix 1 all npt temp 600 $T $(dt*100) iso 0 0 $(dt*1000)
fix 1 all npt temp 600 600 $(dt*100) iso 0 0 $(dt*1000)
fix 1 all npt temp 600 600 0.10000000000000000555 iso 0 0 $(dt*1000)
fix 1 all npt temp 600 600 0.10000000000000000555 iso 0 0 1
print """
<--------------------------------------------------------------------->
<------------------ Equilibrating at temperature $T ----------------->
<--------------------------------------------------------------------->
"""

<--------------------------------------------------------------------->
<------------------ Equilibrating at temperature 600 ----------------->
<--------------------------------------------------------------------->

run 250000
Last active /omp style is pair_style eam/alloy/omp
Step Temp Volume Press KinEng PotEng Density
0    499.86368    23355.267    77.708439    132.26169   -8880.1612    8.5812929
Averages over the last 126 of 251 rows, steps 125000 to 250000:
Temp Volume Press KinEng PotEng Density
600.907 23453.7 67.6102 158.997 -8851.97 8.54531
Loop time of 503.639 on 8 procs for 250000 steps with 2048 atoms

# fix 132 all momentum 100 linear 1 1 1 angular

# dump 3 all custom 1000 traj_npt_new.lammpstrj id type x y z
run 50000
Last active /omp style is pair_style eam/alloy/omp
Step Temp Volume Press KinEng PotEng Density
250000    613.27509    23446.545    1290.6803    162.26984     -8849.51    8.5478858
Averages over the last 26 of 51 rows, steps 275000 to 300000:
Temp Volume Press KinEng PotEng Density
603.361 23464.4 -366.567 159.647 -8850.36 8.54138
Loop time of 99.7473 on 8 procs for 50000 steps with 2048 atoms

unfix temp
unfix out_file_1
# unfix 1
# # clear
write_data after_heating_$T.in
write_data after_heating_600.in
System init for write_data ...
Last active /omp style is pair_style eam/alloy/omp
write_restart after_heating_$T.lmp
write_restart after_heating_600.lmp
System init for write_restart ...
Last active /omp style is pair_style eam/alloy/omp
next loopVar
# # # thermo_modify flush yes
jump in.lmp ensemble

print """
Label pachadi solti, hos garam.
"""

Label pachadi solti, hos garam.

variable T equal 200+5*100
# variable T equal 1200
# velocity all create 1200 123123
reset_timestep 0
fix 1 all npt temp $T $T $(dt*100) iso 0 0 $(dt*1000)
fix 1 all npt temp 700 $T $(dt*100) iso 0 0 $(dt*1000)
fix 1 all npt temp 700 700 $(dt*100) iso 0 0 $(dt*1000)
fix 1 all npt temp 700 700 0.10000000000000000555 iso 0 0 $(dt*1000)
fix 1 all npt temp 700 700 0.10000000000000000555 iso 0 0 1
print """
<--------------------------------------------------------------------->
<------------------ Equilibrating at temperature $T ----------------->
<--------------------------------------------------------------------->
"""

<--------------------------------------------------------------------->
<------------------ Equilibrating at temperature 700 ----------------->
<--------------------------------------------------------------------->

run 250000
Last active /omp style is pair_style eam/alloy/omp
Step Temp Volume Press KinEng PotEng Density
0    594.45184    23462.976   -151.89629    157.28929   -8848.6332    8.5418998
Averages over the last 126 of 251 rows, steps 125000 to 250000:
Temp Volume Press KinEng PotEng Density
699.053 23551.9 171.275 184.966 -8822.54 8.50966
Loop time of 510.351 on 8 procs for 250000 steps with 2048 atoms

# fix 132 all momentum 100 linear 1 1 1 angular

# dump 3 all custom 1000 traj_npt_new.lammpstrj id type x y z
run 50000
Last active /omp style is pair_style eam/alloy/omp
Step Temp Volume Press KinEng PotEng Density
250000      705.448    23490.631    3835.3116    186.65838   -8827.3696    8.5318433
Averages over the last 26 of 51 rows, steps 275000 to 300000:
Temp Volume Press KinEng PotEng Density
698.77 23558.7 93.1738 184.891 -8820.63 8.50721
Loop time of 104.256 on 8 procs for 50000 steps with 2048 atoms

unfix temp
unfix out_file_1
# unfix 1
# # clear
write_data after_heating_$T.in
write_data after_heating_700.in
System init for write_data ...
Last active /omp style is pair_style eam/alloy/omp
write_restart after_heating_$T.lmp
write_restart after_heating_700.lmp
System init for write_restart ...
Last active /omp style is pair_style eam/alloy/omp
next loopVar
# # # thermo_modify flush yes
jump in.lmp ensemble

print """
Label pachadi solti, hos garam.
"""

Label pachadi solti, hos garam.

variable T equal 200+6*100
# variable T equal 1200
# velocity all create 1200 123123
reset_timestep 0
fix 1 all npt temp $T $T $(dt*100) iso 0 0 $(dt*1000)
fix 1 all npt temp 800 $T $(dt*100) iso 0 0 $(dt*1000)
fix 1 all npt temp 800 800 $(dt*100) iso 0 0 $(dt*1000)
fix 1 all npt temp 800 800 0.10000000000000000555 iso 0 0 $(dt*1000)
fix 1 all npt temp 800 800 0.10000000000000000555 iso 0 0 1
print """
<--------------------------------------------------------------------->
<------------------ Equilibrating at temperature $T ----------------->
<--------------------------------------------------------------------->
"""

<--------------------------------------------------------------------->
<------------------ Equilibrating at temperature 800 ----------------->
<--------------------------------------------------------------------->

run 250000
Last active /omp style is pair_style eam/alloy/omp
Step Temp Volume Press KinEng PotEng Density
0    691.57133    23524.572    3658.4164    182.98667   -8815.4473    8.5195339
Averages over the last 126 of 251 rows, steps 125000 to 250000:
Temp Volume Press KinEng PotEng Density
801.211 23653.6 -28.0406 211.997 -8793.54 8.47309
Loop time of 525.907 on 8 procs for 250000 steps with 2048 atoms

# fix 132 all momentum 100 linear 1 1 1 angular

# dump 3 all custom 1000 traj_npt_new.lammpstrj id type x y z
run 50000
Last active /omp style is pair_style eam/alloy/omp
Step Temp Volume Press KinEng PotEng Density
250000    802.82853    23715.443   -3161.7899    212.42483   -8788.0382    8.4509654
Averages over the last 26 of 51 rows, steps 275000 to 300000:
Temp Volume Press KinEng PotEng Density
800.32 23653.3 -85.9745 211.761 -8793.86 8.47319
Loop time of 176.47 on 8 procs for 50000 steps with 2048 atoms

unfix temp
unfix out_file_1
# unfix 1
# # clear
write_data after_heating_$T.in
write_data after_heating_800.in
System init for write_data ...
Last active /omp style is pair_style eam/alloy/omp
write_restart after_heating_$T.lmp
write_restart after_heating_800.lmp
System init for write_restart ...
Last active /omp style is pair_style eam/alloy/omp
next loopVar
# # # thermo_modify flush yes
jump in.lmp ensemble

print """
Label pachadi solti, hos garam.
"""

Label pachadi solti, hos garam.

variable T equal 200+7*100
# variable T equal 1200
# velocity all create 1200 123123
reset_timestep 0
fix 1 all npt temp $T $T $(dt*100) iso 0 0 $(dt*1000)
fix 1 all npt temp 900 $T $(dt*100) iso 0 0 $(dt*1000)
fix 1 all npt temp 900 900 $(dt*100) iso 0 0 $(dt*1000)
fix 1 all npt temp 900 900 0.10000000000000000555 iso 0 0 $(dt*1000)
fix 1 all npt temp 900 900 0.10000000000000000555 iso 0 0 1
print """
<--------------------------------------------------------------------->
<------------------ Equilibrating at temperature $T ----------------->
<--------------------------------------------------------------------->
"""

<--------------------------------------------------------------------->
<------------------ Equilibrating at temperature 900 ----------------->
<--------------------------------------------------------------------->

run 250000
Last active /omp style is pair_style eam/alloy/omp
Step Temp Volume Press KinEng PotEng Density
0    823.87962    23662.602   -440.99486    217.99485   -8793.1292    8.4698373
Averages over the last 126 of 251 rows, steps 125000 to 250000:
Temp Volume Press KinEng PotEng Density
899.514 23755.8 19.8573 238.007 -8762.86 8.43665
Loop time of 727.59 on 8 procs for 250000 steps with 2048 atoms

# fix 132 all momentum 100 linear 1 1 1 angular

# dump 3 all custom 1000 traj_npt_new.lammpstrj id type x y z
run 50000
Last active /omp style is pair_style eam/alloy/omp
Step Temp Volume Press KinEng PotEng Density
250000    882.86033    23829.719   -4386.8925    233.60088   -8758.2777    8.4104384
Averages over the last 26 of 51 rows, steps 275000 to 300000:
Temp Volume Press KinEng PotEng Density
902.747 23756.6 -77.6833 238.863 -8763.47 8.43637
Loop time of 101.07 on 8 procs for 50000 steps with 2048 atoms

unfix temp
unfix out_file_1
# unfix 1
# # clear
write_data after_heating_$T.in
write_data after_heating_900.in
System init for write_data ...
Last active /omp style is pair_style eam/alloy/omp
write_restart after_heating_$T.lmp
write_restart after_heating_900.lmp
System init for write_restart ...
Last active /omp style is pair_style eam/alloy/omp
next loopVar
# # # thermo_modify flush yes
jump in.lmp ensemble

print """
Label pachadi solti, hos garam.
"""

Label pachadi solti, hos garam.

variable T equal 200+8*100
# variable T equal 1200
# velocity all create 1200 123123
reset_timestep 0
fix 1 all npt temp $T $T $(dt*100) iso 0 0 $(dt*1000)
fix 1 all npt temp 1000 $T $(dt*100) iso 0 0 $(dt*1000)
fix 1 all npt temp 1000 1000 $(dt*100) iso 0 0 $(dt*1000)
fix 1 all npt temp 1000 1000 0.10000000000000000555 iso 0 0 $(dt*1000)
fix 1 all npt temp 1000 1000 0.10000000000000000555 iso 0 0 1
print """
<--------------------------------------------------------------------->
<------------------ Equilibrating at temperature $T ----------------->
<--------------------------------------------------------------------->
"""

<--------------------------------------------------------------------->
<------------------ Equilibrating at temperature 1000 ----------------->
<--------------------------------------------------------------------->

run 250000
Last active /omp style is pair_style eam/alloy/omp
Step Temp Volume Press KinEng PotEng Density
0    879.54386    23678.852    4127.1669    232.72336   -8768.5006    8.4640246
Averages over the last 126 of 251 rows, steps 125000 to 250000:
Temp Volume Press KinEng PotEng Density
1001.14 23858.8 -144.873 264.898 -8733.52 8.40021
Loop time of 509.73 on 8 procs for 250000 steps with 2048 atoms

# fix 132 all momentum 100 linear 1 1 1 angular

# dump 3 all custom 1000 traj_npt_new.lammpstrj id type x y z
run 50000
Last active /omp style is pair_style eam/alloy/omp
Step Temp Volume Press KinEng PotEng Density
250000    990.28601    23833.572   -187.70831    262.02524   -8740.9843    8.4090789
Averages over the last 26 of 51 rows, steps 275000 to 300000:
Temp Volume Press KinEng PotEng Density
1000.34 23857.2 -227.566 264.684 -8734.37 8.40077
Loop time of 102.443 on 8 procs for 50000 steps with 2048 atoms

unfix temp
unfix out_file_1
# unfix 1
# # clear
write_data after_heating_$T.in
write_data after_heating_1000.in
System init for write_data ...
Last active /omp style is pair_style eam/alloy/omp
write_restart after_heating_$T.lmp
write_restart after_heating_1000.lmp
System init for write_restart ...
Last active /omp style is pair_style eam/alloy/omp
next loopVar
# # # thermo_modify flush yes
jump in.lmp ensemble

print """
Label pachadi solti, hos garam.
"""

Label pachadi solti, hos garam.

variable T equal 200+9*100
# variable T equal 1200
# velocity all create 1200 123123
reset_timestep 0
fix 1 all npt temp $T $T $(dt*100) iso 0 0 $(dt*1000)
fix 1 all npt temp 1100 $T $(dt*100) iso 0 0 $(dt*1000)
fix 1 all npt temp 1100 1100 $(dt*100) iso 0 0 $(dt*1000)
fix 1 all npt temp 1100 1100 0.10000000000000000555 iso 0 0 $(dt*1000)
fix 1 all npt temp 1100 1100 0.10000000000000000555 iso 0 0 1
print """
<--------------------------------------------------------------------->
<------------------ Equilibrating at temperature $T ----------------->
<--------------------------------------------------------------------->
"""

<--------------------------------------------------------------------->
<------------------ Equilibrating at temperature 1100 ----------------->
<--------------------------------------------------------------------->

run 250000
Last active /omp style is pair_style eam/alloy/omp
Step Temp Volume Press KinEng PotEng Density
0    1025.6345    23870.118   -2318.5238    271.37829   -8741.0197    8.3962042
Averages over the last 126 of 251 rows, steps 125000 to 250000:
Temp Volume Press KinEng PotEng Density
1102.39 23964.4 -83.0026 291.686 -8702.36 8.3632
Loop time of 513.775 on 8 procs for 250000 steps with 2048 atoms

# fix 132 all momentum 100 linear 1 1 1 angular

# dump 3 all custom 1000 traj_npt_new.lammpstrj id type x y z
run 50000
Last active /omp style is pair_style eam/alloy/omp
Step Temp Volume Press KinEng PotEng Density
250000    1077.8158    24022.607   -3646.3098    285.18523   -8698.7745    8.3429075
Averages over the last 26 of 51 rows, steps 275000 to 300000:
Temp Volume Press KinEng PotEng Density
1102.75 23972.6 -596.103 291.783 -8701.95 8.36035
Loop time of 103.745 on 8 procs for 50000 steps with 2048 atoms

unfix temp
unfix out_file_1
# unfix 1
# # clear
write_data after_heating_$T.in
write_data after_heating_1100.in
System init for write_data ...
Last active /omp style is pair_style eam/alloy/omp
write_restart after_heating_$T.lmp
write_restart after_heating_1100.lmp
System init for write_restart ...
Last active /omp style is pair_style eam/alloy/omp
next loopVar
# # # thermo_modify flush yes
jump in.lmp ensemble

print """
Label pachadi solti, hos garam.
"""

Label pachadi solti, hos garam.

variable T equal 200+10*100
# variable T equal 1200
# velocity all create 1200 123123
reset_timestep 0
fix 1 all npt temp $T $T $(dt*100) iso 0 0 $(dt*1000)
fix 1 all npt temp 1200 $T $(dt*100) iso 0 0 $(dt*1000)
fix 1 all npt temp 1200 1200 $(dt*100) iso 0 0 $(dt*1000)
fix 1 all npt temp 1200 1200 0.10000000000000000555 iso 0 0 $(dt*1000)
fix 1 all npt temp 1200 1200 0.10000000000000000555 iso 0 0 1
print """
<--------------------------------------------------------------------->
<------------------ Equilibrating at temperature $T ----------------->
<--------------------------------------------------------------------->
"""

<--------------------------------------------------------------------->
<------------------ Equilibrating at temperature 1200 ----------------->
<--------------------------------------------------------------------->

run 250000
Last active /omp style is pair_style eam/alloy/omp
Step Temp Volume Press KinEng PotEng Density
0    1139.0169    23940.322    3160.5358    301.37877   -8698.8088    8.3715828
Averages over the last 126 of 251 rows, steps 125000 to 250000:
Temp Volume Press KinEng PotEng Density
1195.5 24085.5 -955.801 316.325 -8669.97 8.32116
Loop time of 526.929 on 8 procs for 250000 steps with 2048 atoms

# fix 132 all momentum 100 linear 1 1 1 angular

# dump 3 all custom 1000 traj_npt_new.lammpstrj id type x y z
run 50000
Last active /omp style is pair_style eam/alloy/omp
Step Temp Volume Press KinEng PotEng Density
250000    1192.1647    24063.564    189.95889    315.44145   -8674.2077    8.3287075
Averages over the last 26 of 51 rows, steps 275000 to 300000:
Temp Volume Press KinEng PotEng Density
1203.7 24065.3 662.299 318.495 -8669.04 8.32814
Loop time of 104.974 on 8 procs for 50000 steps with 2048 atoms

unfix temp
unfix out_file_1
# unfix 1
# # clear
write_data after_heating_$T.in
write_data after_heating_1200.in
System init for write_data ...
Last active /omp style is pair_style eam/alloy/omp
write_restart after_heating_$T.lmp
write_restart after_heating_1200.lmp
System init for write_restart ...
Last active /omp style is pair_style eam/alloy/omp
next loopVar
# # # thermo_modify flush yes
jump in.lmp ensemble

print """
Label pachadi solti, hos garam.
"""

Label pachadi solti, hos garam.

variable T equal 200+11*100
# variable T equal 1200
# velocity all create 1200 123123
reset_timestep 0
fix 1 all npt temp $T $T $(dt*100) iso 0 0 $(dt*1000)
fix 1 all npt temp 1300 $T $(dt*100) iso 0 0 $(dt*1000)
fix 1 all npt temp 1300 1300 $(dt*100) iso 0 0 $(dt*1000)
fix 1 all npt temp 1300 1300 0.10000000000000000555 iso 0 0 $(dt*1000)
fix 1 all npt temp 1300 1300 0.10000000000000000555 iso 0 0 1
print """
<--------------------------------------------------------------------->
<------------------ Equilibrating at temperature $T ----------------->
<--------------------------------------------------------------------->
"""

<--------------------------------------------------------------------->
<------------------ Equilibrating at temperature 1300 ----------------->
<--------------------------------------------------------------------->

run 250000
Last active /omp style is pair_style eam/alloy/omp
Step Temp Volume Press KinEng PotEng Density
0    1211.4794     24083.72    1153.7795    320.55201   -8660.3973     8.321737
Averages over the last 126 of 251 rows, steps 125000 to 250000:
Temp Volume Press KinEng PotEng Density
1303.87 24177.9 213.312 344.998 -8638.45 8.28935
Loop time of 526.591 on 8 procs for 250000 steps with 2048 atoms

# fix 132 all momentum 100 linear 1 1 1 angular

# dump 3 all custom 1000 traj_npt_new.lammpstrj id type x y z
run 50000
Last active /omp style is pair_style eam/alloy/omp
Step Temp Volume Press KinEng PotEng Density
250000    1334.9565    24190.084    974.22135     353.2235   -8633.5655    8.2851463
Averages over the last 26 of 51 rows, steps 275000 to 300000:
Temp Volume Press KinEng PotEng Density
1294.5 24197.7 -953.667 342.52 -8636.82 8.28258
Loop time of 100.023 on 8 procs for 50000 steps with 2048 atoms

unfix temp
unfix out_file_1
# unfix 1
# # clear
write_data after_heating_$T.in
write_data after_heating_1300.in
System init for write_data ...
Last active /omp style is pair_style eam/alloy/omp
write_restart after_heating_$T.lmp
write_restart after_heating_1300.lmp
System init for write_restart ...
Last active /omp style is pair_style eam/alloy/omp
next loopVar
# # # thermo_modify flush yes
jump in.lmp ensemble

print """
Label pachadi solti, hos garam.
"""

Label pachadi solti, hos garam.

variable T equal 200+12*100
# variable T equal 1200
# velocity all create 1200 123123
reset_timestep 0
fix 1 all npt temp $T $T $(dt*100) iso 0 0 $(dt*1000)
fix 1 all npt temp 1400 $T $(dt*100) iso 0 0 $(dt*1000)
fix 1 all npt temp 1400 1400 $(dt*100) iso 0 0 $(dt*1000)
fix 1 all npt temp 1400 1400 0.10000000000000000555 iso 0 0 $(dt*1000)
fix 1 all npt temp 1400 1400 0.10000000000000000555 iso 0 0 1
print """
<--------------------------------------------------------------------->
<------------------ Equilibrating at temperature $T ----------------->
<--------------------------------------------------------------------->
"""

<--------------------------------------------------------------------->
<------------------ Equilibrating at temperature 1400 ----------------->
<--------------------------------------------------------------------->

run 250000
Last active /omp style is pair_style eam/alloy/omp
Step Temp Volume Press KinEng PotEng Density
0    1299.3076    24082.614    4665.6914    343.79096   -8648.0448    8.3221194
Averages over the last 126 of 251 rows, steps 125000 to 250000:
Temp Volume Press KinEng PotEng Density
1398.92 24301.1 -362.552 370.149 -8604.79 8.24734
Loop time of 499.64 on 8 procs for 250000 steps with 2048 atoms

# fix 132 all momentum 100 linear 1 1 1 angular

# dump 3 all custom 1000 traj_npt_new.lammpstrj id type x y z
run 50000
Last active /omp style is pair_style eam/alloy/omp
Step Temp Volume Press KinEng PotEng Density
250000    1416.2438    24303.488    1445.2227    374.73177   -8595.6244    8.2464864
Averages over the last 26 of 51 rows, steps 275000 to 300000:
Temp Volume Press KinEng PotEng Density
1405.28 24302.1 -873.069 371.83 -8607.32 8.24702
Loop time of 100.814 on 8 procs for 50000 steps with 2048 atoms

unfix temp
unfix out_file_1
# unfix 1
# # clear
write_data after_heating_$T.in
write_data after_heating_1400.in
System init for write_data ...
Last active /omp style is pair_style eam/alloy/omp
write_restart after_heating_$T.lmp
write_restart after_heating_1400.lmp
System init for write_restart ...
Last active /omp style is pair_style eam/alloy/omp
next loopVar
# # # thermo_modify flush yes
jump in.lmp ensemble

print """
Label pachadi solti, hos garam.
"""

Label pachadi solti, hos garam.

variable T equal 200+13*100
# variable T equal 1200
# velocity all create 1200 123123
reset_timestep 0
fix 1 all npt temp $T $T $(dt*100) iso 0 0 $(dt*1000)
fix 1 all npt temp 1500 $T $(dt*100) iso 0 0 $(dt*1000)
fix 1 all npt temp 1500 1500 $(dt*100) iso 0 0 $(dt*1000)
fix 1 all npt temp 1500 1500 0.10000000000000000555 iso 0 0 $(dt*1000)
fix 1 all npt temp 1500 1500 0.10000000000000000555 iso 0 0 1
print """
<--------------------------------------------------------------------->
<------------------ Equilibrating at temperature $T ----------------->
<--------------------------------------------------------------------->
"""

<--------------------------------------------------------------------->
<------------------ Equilibrating at temperature 1500 ----------------->
<--------------------------------------------------------------------->

run 250000
Last active /omp style is pair_style eam/alloy/omp
Step Temp Volume Press KinEng PotEng Density
0    1396.5689    24230.822    4611.4878    369.52586   -8603.1247    8.2712169
Averages over the last 126 of 251 rows, steps 125000 to 250000:
Temp Volume Press KinEng PotEng Density
1504.21 24415.1 -72.7629 398.007 -8570.62 8.20884
Loop time of 495.995 on 8 procs for 250000 steps with 2048 atoms

# fix 132 all momentum 100 linear 1 1 1 angular

# dump 3 all custom 1000 traj_npt_new.lammpstrj id type x y z
run 50000
Last active /omp style is pair_style eam/alloy/omp
Step Temp Volume Press KinEng PotEng Density
250000    1526.2622    24301.796     7724.113    403.84213   -8571.6054    8.2470608
Averages over the last 26 of 51 rows, steps 275000 to 300000:
Temp Volume Press KinEng PotEng Density
1490.56 24406.4 274.361 394.395 -8570.93 8.21178
Loop time of 100.742 on 8 procs for 50000 steps with 2048 atoms

unfix temp
unfix out_file_1
# unfix 1
# # clear
write_data after_heating_$T.in
write_data after_heating_1500.in
System init for write_data ...
Last active /omp style is pair_style eam/alloy/omp
write_restart after_heating_$T.lmp
write_restart after_heating_1500.lmp
System init for write_restart ...
Last active /omp style is pair_style eam/alloy/omp
next loopVar
# # # thermo_modify flush yes
jump in.lmp ensemble

print """
Label pachadi solti, hos garam.
"""

Label pachadi solti, hos garam.

variable T equal 200+14*100
# variable T equal 1200
# velocity all create 1200 123123
reset_timestep 0
fix 1 all npt temp $T $T $(dt*100) iso 0 0 $(dt*1000)
fix 1 all npt temp 1600 $T $(dt*100) iso 0 0 $(dt*1000)
fix 1 all npt temp 1600 1600 $(dt*100) iso 0 0 $(dt*1000)
fix 1 all npt temp 1600 1600 0.10000000000000000555 iso 0 0 $(dt*1000)
fix 1 all npt temp 1600 1600 0.10000000000000000555 iso 0 0 1
print """
<--------------------------------------------------------------------->
<------------------ Equilibrating at temperature $T ----------------->
<--------------------------------------------------------------------->
"""

<--------------------------------------------------------------------->
<------------------ Equilibrating at temperature 1600 ----------------->
<--------------------------------------------------------------------->

run 250000
Last active /omp style is pair_style eam/alloy/omp
Step Temp Volume Press KinEng PotEng Density
0    1464.9012     24397.98    937.52186    387.60628   -8567.3697    8.2145482
Averages over the last 126 of 251 rows, steps 125000 to 250000:
Temp Volume Press KinEng PotEng Density
1603.41 24540.1 -19.2564 424.255 -8534.47 8.16702
Loop time of 493.903 on 8 procs for 250000 steps with 2048 atoms

# fix 132 all momentum 100 linear 1 1 1 angular

# dump 3 all custom 1000 traj_npt_new.lammpstrj id type x y z
run 50000
Last active /omp style is pair_style eam/alloy/omp
Step Temp Volume Press KinEng PotEng Density
250000    1644.5744    24527.905    1156.1262    435.14701   -8533.5227    8.1710358
Averages over the last 26 of 51 rows, steps 275000 to 300000:
Temp Volume Press KinEng PotEng Density
1599.56 24537.7 -224.934 423.237 -8536.23 8.16781
Loop time of 100.465 on 8 procs for 50000 steps with 2048 atoms

unfix temp
unfix out_file_1
# unfix 1
# # clear
write_data after_heating_$T.in
write_data after_heating_1600.in
System init for write_data ...
Last active /omp style is pair_style eam/alloy/omp
write_restart after_heating_$T.lmp
write_restart after_heating_1600.lmp
System init for write_restart ...
Last active /omp style is pair_style eam/alloy/omp
next loopVar
# # # thermo_modify flush yes
jump in.lmp ensemble

print """
Label pachadi solti, hos garam.
"""

Label pachadi solti, hos garam.

variable T equal 200+15*100
# variable T equal 1200
# velocity all create 1200 123123
reset_timestep 0
fix 1 all npt temp $T $T $(dt*100) iso 0 0 $(dt*1000)
fix 1 all npt temp 1700 $T $(dt*100) iso 0 0 $(dt*1000)
fix 1 all npt temp 1700 1700 $(dt*100) iso 0 0 $(dt*1000)
fix 1 all npt temp 1700 1700 0.10000000000000000555 iso 0 0 $(dt*1000)
fix 1 all npt temp 1700 1700 0.10000000000000000555 iso 0 0 1
print """
<--------------------------------------------------------------------->
<------------------ Equilibrating at temperature $T ----------------->
<--------------------------------------------------------------------->
"""

<--------------------------------------------------------------------->
<------------------ Equilibrating at temperature 1700 ----------------->
<--------------------------------------------------------------------->

run 250000
Last active /omp style is pair_style eam/alloy/omp
Step Temp Volume Press KinEng PotEng Density
0    1592.6941    24559.729     -1205.63    421.41972   -8534.1331    8.1604478
Averages over the last 126 of 251 rows, steps 125000 to 250000:
Temp Volume Press KinEng PotEng Density
1702.44 24668 -205.349 450.459 -8498.42 8.12469
Loop time of 515.669 on 8 procs for 250000 steps with 2048 atoms

# fix 132 all momentum 100 linear 1 1 1 angular

# dump 3 all custom 1000 traj_npt_new.lammpstrj id type x y z
run 50000
Last active /omp style is pair_style eam/alloy/omp
Step Temp Volume Press KinEng PotEng Density
250000    1659.9494     24594.97    3125.4352    439.21516   -8505.2044    8.1487549
Averages over the last 26 of 51 rows, steps 275000 to 300000:
Temp Volume Press KinEng PotEng Density
1697.39 24651.1 432.152 449.123 -8500.77 8.13029
Loop time of 100.635 on 8 procs for 50000 steps with 2048 atoms

unfix temp
unfix out_file_1
# unfix 1
# # clear
write_data after_heating_$T.in
write_data after_heating_1700.in
System init for write_data ...
Last active /omp style is pair_style eam/alloy/omp
write_restart after_heating_$T.lmp
write_restart after_heating_1700.lmp
System init for write_restart ...
Last active /omp style is pair_style eam/alloy/omp
next loopVar
# # # thermo_modify flush yes
jump in.lmp ensemble

print """
Label pachadi solti, hos garam.
"""

Label pachadi solti, hos garam.

variable T equal 200+16*100
# variable T equal 1200
# velocity all create 1200 123123
reset_timestep 0
fix 1 all npt temp $T $T $(dt*100) iso 0 0 $(dt*1000)
fix 1 all npt temp 1800 $T $(dt*100) iso 0 0 $(dt*1000)
fix 1 all npt temp 1800 1800 $(dt*100) iso 0 0 $(dt*1000)
fix 1 all npt temp 1800 1800 0.10000000000000000555 iso 0 0 $(dt*1000)
fix 1 all npt temp 1800 1800 0.10000000000000000555 iso 0 0 1
print """
<--------------------------------------------------------------------->
<------------------ Equilibrating at temperature $T ----------------->
<--------------------------------------------------------------------->
"""

<--------------------------------------------------------------------->
<------------------ Equilibrating at temperature 1800 ----------------->
<--------------------------------------------------------------------->

run 250000
Last active /omp style is pair_style eam/alloy/omp
Step Temp Volume Press KinEng PotEng Density
0    1709.5367    24783.931   -5054.0601    452.33576    -8483.784    8.0866263
Averages over the last 126 of 251 rows, steps 125000 to 250000:
Temp Volume Press KinEng PotEng Density
1797.43 24798.9 -67.1241 475.593 -8460.31 8.08181
Loop time of 502.371 on 8 procs for 250000 steps with 2048 atoms

# fix 132 all momentum 100 linear 1 1 1 angular

# dump 3 all custom 1000 traj_npt_new.lammpstrj id type x y z
run 50000
Last active /omp style is pair_style eam/alloy/omp
Step Temp Volume Press KinEng PotEng Density
250000    1818.5106    24829.498   -77.846302    481.16975    -8452.272    8.0717856
Averages over the last 26 of 51 rows, steps 275000 to 300000:
Temp Volume Press KinEng PotEng Density
1794.19 24796.5 431.463 474.735 -8458.85 8.08257
Loop time of 100.071 on 8 procs for 50000 steps with 2048 atoms

unfix temp
unfix out_file_1
# unfix 1
# # clear
write_data after_heating_$T.in
write_data after_heating_1800.in
System init for write_data ...
Last active /omp style is pair_style eam/alloy/omp
write_restart after_heating_$T.lmp
write_restart after_heating_1800.lmp
System init for write_restart ...
Last active /omp style is pair_style eam/alloy/omp
next loopVar
# # # thermo_modify flush yes
jump in.lmp ensemble

print """
Label pachadi solti, hos garam.
"""

Label pachadi solti, hos garam.

variable T equal 200+17*100
# variable T equal 1200
# velocity all create 1200 123123
reset_timestep 0
fix 1 all npt temp $T $T $(dt*100) iso 0 0 $(dt*1000)
fix 1 all npt temp 1900 $T $(dt*100) iso 0 0 $(dt*1000)
fix 1 all npt temp 1900 1900 $(dt*100) iso 0 0 $(dt*1000)
fix 1 all npt temp 1900 1900 0.10000000000000000555 iso 0 0 $(dt*1000)
fix 1 all npt temp 1900 1900 0.10000000000000000555 iso 0 0 1
print """
<--------------------------------------------------------------------->
<------------------ Equilibrating at temperature $T ----------------->
<--------------------------------------------------------------------->
"""

<--------------------------------------------------------------------->
<------------------ Equilibrating at temperature 1900 ----------------->
<--------------------------------------------------------------------->

run 250000
Last active /omp style is pair_style eam/alloy/omp
Step Temp Volume Press KinEng PotEng Density
0     1837.752    24741.379    5513.9645    486.26095   -8454.2747    8.1005342
Averages over the last 126 of 251 rows, steps 125000 to 250000:
Temp Volume Press KinEng PotEng Density
1898.05 24948.1 -43.2521 502.217 -8417.91 8.03348
Loop time of 496.362 on 8 procs for 250000 steps with 2048 atoms

# fix 132 all momentum 100 linear 1 1 1 angular

# dump 3 all custom 1000 traj_npt_new.lammpstrj id type x y z
run 50000
Last active /omp style is pair_style eam/alloy/omp
Step Temp Volume Press KinEng PotEng Density
250000    1932.2141    24876.348    152.98227     511.2552   -8442.5816    8.0565838
Averages over the last 26 of 51 rows, steps 275000 to 300000:
Temp Volume Press KinEng PotEng Density
1895.02 24947 -327.078 501.414 -8419.42 8.03385
Loop time of 98.2714 on 8 procs for 50000 steps with 2048 atoms

unfix temp
unfix out_file_1
# unfix 1
# # clear
write_data after_heating_$T.in
write_data after_heating_1900.in
System init for write_data ...
Last active /omp style is pair_style eam/alloy/omp
write_restart after_heating_$T.lmp
write_restart after_heating_1900.lmp
System init for write_restart ...
Last active /omp style is pair_style eam/alloy/omp
next loopVar
# # # thermo_modify flush yes
jump in.lmp ensemble

print """
Label pachadi solti, hos garam.
"""

Label pachadi solti, hos garam.

variable T equal 200+18*100
# variable T equal 1200
# velocity all create 1200 123123
reset_timestep 0
fix 1 all npt temp $T $T $(dt*100) iso 0 0 $(dt*1000)
fix 1 all npt temp 2000 $T $(dt*100) iso 0 0 $(dt*1000)
fix 1 all npt temp 2000 2000 $(dt*100) iso 0 0 $(dt*1000)
fix 1 all npt temp 2000 2000 0.10000000000000000555 iso 0 0 $(dt*1000)
fix 1 all npt temp 2000 2000 0.10000000000000000555 iso 0 0 1
print """
<--------------------------------------------------------------------->
<------------------ Equilibrating at temperature $T ----------------->
<--------------------------------------------------------------------->
"""

<--------------------------------------------------------------------->
<------------------ Equilibrating at temperature 2000 ----------------->
<--------------------------------------------------------------------->

run 250000
Last active /omp style is pair_style eam/alloy/omp
Step Temp Volume Press KinEng PotEng Density
0    1874.7565    24808.472     7732.983    496.05215    -8424.497    8.0786268
Averages over the last 126 of 251 rows, steps 125000 to 250000:
Temp Volume Press KinEng PotEng Density
2003.42 25112 -371.989 530.095 -8373.61 7.98104
Loop time of 495.77 on 8 procs for 250000 steps with 2048 atoms

# fix 132 all momentum 100 linear 1 1 1 angular

# dump 3 all custom 1000 traj_npt_new.lammpstrj id type x y z
run 50000
Last active /omp style is pair_style eam/alloy/omp
Step Temp Volume Press KinEng PotEng Density
250000    1952.9683    25151.072   -4687.0643    516.74665   -8378.3475    7.9685824
Averages over the last 26 of 51 rows, steps 275000 to 300000:
Temp Volume Press KinEng PotEng Density
2004.97 25113 -466.384 530.506 -8373.87 7.98072
Loop time of 99.5758 on 8 procs for 50000 steps with 2048 atoms

unfix temp
unfix out_file_1
# unfix 1
# # clear
write_data after_heating_$T.in
write_data after_heating_2000.in
System init for write_data ...
Last active /omp style is pair_style eam/alloy/omp
write_restart after_heating_$T.lmp
write_restart after_heating_2000.lmp
System init for write_restart ...
Last active /omp style is pair_style eam/alloy/omp
next loopVar
# # # thermo_modify flush yes
jump in.lmp ensemble

print """
Label pachadi solti, hos garam.
"""

Label pachadi solti, hos garam.

variable T equal 200+19*100
# variable T equal 1200
# velocity all create 1200 123123
reset_timestep 0
fix 1 all npt temp $T $T $(dt*100) iso 0 0 $(dt*1000)
fix 1 all npt temp 2100 $T $(dt*100) iso 0 0 $(dt*1000)
fix 1 all npt temp 2100 2100 $(dt*100) iso 0 0 $(dt*1000)
fix 1 all npt temp 2100 2100 0.10000000000000000555 iso 0 0 $(dt*1000)
fix 1 all npt temp 2100 2100 0.10000000000000000555 iso 0 0 1
print """
<--------------------------------------------------------------------->
<------------------ Equilibrating at temperature $T ----------------->
<--------------------------------------------------------------------->
"""

<--------------------------------------------------------------------->
<------------------ Equilibrating at temperature 2100 ----------------->
<--------------------------------------------------------------------->

run 250000
Last active /omp style is pair_style eam/alloy/omp
Step Temp Volume Press KinEng PotEng Density
0    1998.1909    25226.878   -2696.1873    528.71236   -8347.5434    7.9446368
Averages over the last 126 of 251 rows, steps 125000 to 250000:
Temp Volume Press KinEng PotEng Density
2105.33 25335.8 -259.086 557.061 -8309.81 7.91059
Loop time of 512.71 on 8 procs for 250000 steps with 2048 atoms

# fix 132 all momentum 100 linear 1 1 1 angular

# dump 3 all custom 1000 traj_npt_new.lammpstrj id type x y z
run 50000
Last active /omp style is pair_style eam/alloy/omp
Step Temp Volume Press KinEng PotEng Density
250000     2111.886    25308.267   -4604.4233    558.79556   -8339.0741    7.9190876
Averages over the last 26 of 51 rows, steps 275000 to 300000:
Temp Volume Press KinEng PotEng Density
2107.06 25279.8 144.355 557.519 -8323.86 7.92809
Loop time of 105.844 on 8 procs for 50000 steps with 2048 atoms

unfix temp
unfix out_file_1
# unfix 1
# # clear
write_data after_heating_$T.in
write_data after_heating_2100.in
System init for write_data ...
Last active /omp style is pair_style eam/alloy/omp
write_restart after_heating_$T.lmp
write_restart after_heating_2100.lmp
System init for write_restart ...
Last active /omp style is pair_style eam/alloy/omp
next loopVar
# # # thermo_modify flush yes
jump in.lmp ensemble

print """
Label pachadi solti, hos garam.
"""

Label pachadi solti, hos garam.

variable T equal 200+20*100
# variable T equal 1200
# velocity all create 1200 123123
reset_timestep 0
fix 1 all npt temp $T $T $(dt*100) iso 0 0 $(dt*1000)
fix 1 all npt temp 2200 $T $(dt*100) iso 0 0 $(dt*1000)
fix 1 all npt temp 2200 2200 $(dt*100) iso 0 0 $(dt*1000)
fix 1 all npt temp 2200 2200 0.10000000000000000555 iso 0 0 $(dt*1000)
fix 1 all npt temp 2200 2200 0.10000000000000000555 iso 0 0 1
print """
<--------------------------------------------------------------------->
<------------------ Equilibrating at temperature $T ----------------->
<--------------------------------------------------------------------->
"""

<--------------------------------------------------------------------->
<------------------ Equilibrating at temperature 2200 ----------------->
<--------------------------------------------------------------------->

run 250000
Last active /omp style is pair_style eam/alloy/omp
Step Temp Volume Press KinEng PotEng Density
0    2064.1118    25288.785    -2902.761    546.15474   -8335.7236    7.9251886
Averages over the last 126 of 251 rows, steps 125000 to 250000:
Temp Volume Press KinEng PotEng Density
2197.56 26588.2 450.267 581.465 -7970.27 7.53797
Loop time of 501.287 on 8 procs for 250000 steps with 2048 atoms

# fix 132 all momentum 100 linear 1 1 1 angular

# dump 3 all custom 1000 traj_npt_new.lammpstrj id type x y z
run 50000
Last active /omp style is pair_style eam/alloy/omp
Step Temp Volume Press KinEng PotEng Density
250000    2246.0539    26631.855    1752.2734    594.29578   -7960.7984    7.5255135
Averages over the last 26 of 51 rows, steps 275000 to 300000:
Temp Volume Press KinEng PotEng Density
2215.23 26585.7 -399.546 586.141 -7975.69 7.53871
Loop time of 103.178 on 8 procs for 50000 steps with 2048 atoms

unfix temp
unfix out_file_1
# unfix 1
# # clear
write_data after_heating_$T.in
write_data after_heating_2200.in
System init for write_data ...
Last active /omp style is pair_style eam/alloy/omp
write_restart after_heating_$T.lmp
write_restart after_heating_2200.lmp
System init for write_restart ...
Last active /omp style is pair_style eam/alloy/omp
next loopVar
# # # thermo_modify flush yes
jump in.lmp ensemble

print """
Label pachadi solti, hos garam.
"""

Label pachadi solti, hos garam.

variable T equal 200+21*100
# variable T equal 1200
# velocity all create 1200 123123
reset_timestep 0
fix 1 all npt temp $T $T $(dt*100) iso 0 0 $(dt*1000)
fix 1 all npt temp 2300 $T $(dt*100) iso 0 0 $(dt*1000)
fix 1 all npt temp 2300 2300 $(dt*100) iso 0 0 $(dt*1000)
fix 1 all npt temp 2300 2300 0.10000000000000000555 iso 0 0 $(dt*1000)
fix 1 all npt temp 2300 2300 0.10000000000000000555 iso 0 0 1
print """
<--------------------------------------------------------------------->
<------------------ Equilibrating at temperature $T ----------------->
<--------------------------------------------------------------------->
"""

<--------------------------------------------------------------------->
<------------------ Equilibrating at temperature 2300 ----------------->
<--------------------------------------------------------------------->

run 250000
Last active /omp style is pair_style eam/alloy/omp
Loop time of 507.184 on 8 procs for 250000 steps with 2048 atoms

# fix 132 all momentum 100 linear 1 1 1 angular

# dump 3 all custom 1000 traj_npt_new.lammpstrj id type x y z
run 50000
Last active /omp style is pair_style eam/alloy/omp
Loop time of 99.95 on 8 procs for 50000 steps with 2048 atoms

unfix temp
unfix out_file_1
# unfix 1
# # clear
write_data after_heating_$T.in
write_data after_heating_2300.in
System init for write_data ...
Last active /omp style is pair_style eam/alloy/omp
write_restart after_heating_$T.lmp
write_restart after_heating_2300.lmp
System init for write_restart ...
Last active /omp style is pair_style eam/alloy/omp
next loopVar
# # # thermo_modify flush yes
jump in.lmp ensemble

print """
Label pachadi solti, hos garam.
"""

Label pachadi solti, hos garam.

variable T equal 200+22*100
# variable T equal 1200
# velocity all create 1200 123123
reset_timestep 0
fix 1 all npt temp $T $T $(dt*100) iso 0 0 $(dt*1000)
fix 1 all npt temp 2400 $T $(dt*100) iso 0 0 $(dt*1000)
fix 1 all npt temp 2400 2400 $(dt*100) iso 0 0 $(dt*1000)
fix 1 all npt temp 2400 2400 0.10000000000000000555 iso 0 0 $(dt*1000)
fix 1 all npt temp 2400 2400 0.10000000000000000555 iso 0 0 1
print """
<--------------------------------------------------------------------->
<------------------ Equilibrating at temperature $T ----------------->
<--------------------------------------------------------------------->
"""

<--------------------------------------------------------------------->
<------------------ Equilibrating at temperature 2400 ----------------->
<--------------------------------------------------------------------->

run 250000
Last active /omp style is pair_style eam/alloy/omp
Loop time of 495.614 on 8 procs for 250000 steps with 2048 atoms

# fix 132 all momentum 100 linear 1 1 1 angular

# dump 3 all custom 1000 traj_npt_new.lammpstrj id type x y z
run 50000
Last active /omp style is pair_style eam/alloy/omp
Loop time of 99.5055 on 8 procs for 50000 steps with 2048 atoms

unfix temp
unfix out_file_1
# unfix 1
# # clear
write_data after_heating_$T.in
write_data after_heating_2400.in
System init for write_data ...
Last active /omp style is pair_style eam/alloy/omp
write_restart after_heating_$T.lmp
write_restart after_heating_2400.lmp
System init for write_restart ...
Last active /omp style is pair_style eam/alloy/omp
next loopVar
# # # thermo_modify flush yes
jump in.lmp ensemble

# write_data after_cooling_$T_.in
# write_restart after_cooling_$T.lmp
