LAMMPS (19 Mar 2020)
package omp 0
using multi-threaded neighbor list subroutines
package omp 4
set 4 OpenMP thread(s) per MPI task
using multi-threaded neighbor list subroutines

units metal
boundary p p p
atom_style atomic

lattice bcc 2.887902
Lattice spacing in x,y,z = 2.8879 2.8879 2.8879
read_data in.data
  orthogonal box = (0 0 0) to (2.8879 2.8879 2.8879)
  reading atoms ...
  2 atoms

replicate 6 6 12
  orthogonal box = (0 0 0) to (17.3274 17.3274 34.6548)
  864 atoms
  replicate CPU = 0.0018481 secs

# lattice bcc 2.887902
# region box block  3 0 3 0 8 units lattice
region left_hot block INF INF INF INF INF 3 units lattice
region right_hot block INF INF INF INF 9 INF units lattice
region middle_cold block INF INF INF INF 3 9 units lattice

#  2 6 units lattice
region hot union 2 left_hot right_hot
group hot_atoms region hot
468 atoms in group hot_atoms
group cold_atoms region middle_cold
468 atoms in group cold_atoms

variable dt equal 0.001

pair_style eam/alloy
pair_coeff * * Mishin-Ni-Al-2009.eam.alloy Ni Al

velocity all create 300 546445435 mom yes rot yes dist gaussian

neighbor 2 bin

neigh_modify every 10 check yes

fix 1 hot_atoms npt temp 300 2300 $(dt*100) iso 0 0 $(dt*1000) drag 1.0
fix 1 hot_atoms npt temp 300 2300 0.10000000000000000555 iso 0 0 $(dt*1000) drag 1.0
fix 1 hot_atoms npt temp 300 2300 0.10000000000000000555 iso 0 0 1 drag 1.0

thermo 1000
thermo_style custom step temp vol press ke pe density

fix temp all print 100 "$(step) $(temp) $(press) $(vol) $(ke) $(pe) $(density)" file temp.txt screen no title  "step temp press vol ke pe density"
# run 250000
fix out_file_1 all print 1000 "$(step) $(temp) $(press) $(vol) $(ke) $(pe) $(density)" file output.txt screen no title  "step temp press vol ke pe density"

dump 3 all custom 1000 traj_npt_new.lammpstrj id type x y z
dump_modify 3 element Ni Al

run 500000
Last active /omp style is pair_style eam/alloy/omp
  update every 10 steps, delay 10 steps, check yes
Step Temp Volume Press KinEng PotEng Density
0          300    10404.737   -79187.926    33.465452   -3881.4006    5.9080204
Averages over the last 251 of 501 rows, steps 250000 to 500000:
Temp Volume Press KinEng PotEng Density
1797.04 10846.3 -445.114 200.462 -3592.52 5.67604
Loop time of 2007.25 on 8 procs for 500000 steps with 864 atoms

write_data after_two_phase_equil.in
Last active /omp style is pair_style eam/alloy/omp
write_restart after_two_phase_equil.lmp
Last active /omp style is pair_style eam/alloy/omp

# write_data temp.data
# create_box 1 box
# create_atoms 2 box args mol values

# # read_restart after_heating.lmp

# variable x equal

# variable P equal 0
# variable dt equal 0.001
# # variable loopVar loop 8

# region left_hot block 0 3 0 3 0 2 units lattic
# region cold block
# # print "step temp vol pe" file heating.txt screen no

# pair_style eam/alloy
# pair_coeff * * Mishin-Ni-Al-2009.eam.alloy Ni Al

# # velocity all create 300 123123

# # fix 2 all nve
# # run 1000
# # unfix 2

# neighbor 2 bin
# neigh_modify every 10 check yes

# timestep $(dt)

# # dump_modify 1 append yes
# dump 3 all custom 10000 traj_npt_new.lammpstrj id type x y z

# thermo 1000
# thermo_style custom step temp vol press ke pe density

# label ensemble
# reset_timestep 0

# fix 1 all npt temp $T $T $(dt*100) iso 0 0 $(dt*1000)
# print """
# <--------------------------------------------------------------------->
# <------------------ Equilibrating at temperature $T ----------------->
# <--------------------------------------------------------------------->
# """
# fix temp all print 100 "$(step) $(temp) $(press) $(vol) $(ke) $(pe) $(density)" file temp.txt screen no title  "step temp press vol ke pe density"
# run 250000
# fix out_file_1 all print 1000 "$(step) $(temp) $(press) $(vol) $(ke) $(pe) $(density)" file heating_$T.txt screen no title  "step temp press vol ke pe density"

# run 100000
# unfix out_file_1
# unfix 1
# # # clear
# # next loopVar
# # # thermo_modify flush yes
# # jump in.lmp ensemble

# write_data after_two_phase_equil.in
# write_restart after_two_phase_equil.lmp
