LAMMPS (19 Mar 2020)
package omp 0
using multi-threaded neighbor list subroutines
package omp 4
set 4 OpenMP thread(s) per MPI task
using multi-threaded neighbor list subroutines
units metal
dimension 3
boundary p p p

lattice fcc 3.5440
Lattice spacing in x,y,z = 3.544 3.544 3.544
region box block 0 7 0 7 0 7 units lattice
create_box 1 box
Created orthogonal box = (0 0 0) to (24.808 24.808 24.808)
create_atoms 1 box
Created 1372 atoms

#read_restart after_heating.lmp

variable P equal 0
variable dt equal 0.001
variable loopVar loop 21

# print "step temp vol pe" file heating.txt screen no

pair_style eam/alloy
pair_coeff * * Co_Zhou04.eam.alloy Co
Reading potential file Co_Zhou04.eam.alloy with DATE: 2018-03-30

neighbor 2 bin
neigh_modify every 10 check yes

thermo 1000
thermo_style custom step temp vol press ke pe density

timestep $(dt)
timestep 0.0010000000000000000208

# fix 2 all npt temp 300 300 $(dt*100) iso 0 0 $(dt*1000)
# run 30000
# unfix 2

# dump_modify 1 append yes
# dump 3 all custom 10000 traj_npt_new.lammpstrj id type x y z

label ensemble

variable T equal 2500-1*100
velocity all create $T 123123
velocity all create 2400 123123
reset_timestep 0
fix 1 all npt temp $T $T $(dt*100) iso 0 0 $(dt*1000)
fix 1 all npt temp 2400 $T $(dt*100) iso 0 0 $(dt*1000)
fix 1 all npt temp 2400 2400 $(dt*100) iso 0 0 $(dt*1000)
fix 1 all npt temp 2400 2400 0.10000000000000000555 iso 0 0 $(dt*1000)
fix 1 all npt temp 2400 2400 0.10000000000000000555 iso 0 0 1
print """
<--------------------------------------------------------------------->
<------------------ Equilibrating at temperature $T ----------------->
<--------------------------------------------------------------------->
"""

<--------------------------------------------------------------------->
<------------------ Equilibrating at temperature 2400 ----------------->
<--------------------------------------------------------------------->

run 150000
Last active /omp style is pair_style eam/alloy/omp
  update every 10 steps, delay 10 steps, check yes
Step Temp Volume Press KinEng PotEng Density
0         2400    15267.758    37435.017    425.31758   -6039.8528        8.794
Averages over the last 76 of 151 rows, steps 75000 to 150000:
Temp Volume Press KinEng PotEng Density
2402.24 18045.7 -130.907 425.714 -5288.57 7.4404
Loop time of 551.269 on 8 procs for 150000 steps with 1372 atoms

fix out_file_1 all print 1000 "$(step) $(temp) $(press) $(vol) $(ke) $(pe) $(density)" file one_phase_cooling_$T.txt screen no title  "step temp press vol ke pe density"
fix out_file_1 all print 1000 "$(step) $(temp) $(press) $(vol) $(ke) $(pe) $(density)" file one_phase_cooling_2400.txt screen no title  "step temp press vol ke pe density"
# dump 3 all custom 1000 traj_npt_new.lammpstrj id type x y z
run 50000
Last active /omp style is pair_style eam/alloy/omp
Step Temp Volume Press KinEng PotEng Density
150000    2338.8752    18056.556    154.47259    414.48531   -5284.1358    7.4357846
Averages over the last 26 of 51 rows, steps 175000 to 200000:
Temp Volume Press KinEng PotEng Density
2394.83 18026.4 1677.13 424.401 -5286.91 7.44834
Loop time of 188.321 on 8 procs for 50000 steps with 1372 atoms

unfix out_file_1
unfix 1
# # clear
# write_data after_cooling_$T.in
# write_restart after_cooling_$T.lmp
next loopVar
# # thermo_modify flush yes
jump in.lmp ensemble

variable T equal 2500-2*100
velocity all create $T 123123
velocity all create 2300 123123
reset_timestep 0
fix 1 all npt temp $T $T $(dt*100) iso 0 0 $(dt*1000)
fix 1 all npt temp 2300 $T $(dt*100) iso 0 0 $(dt*1000)
fix 1 all npt temp 2300 2300 $(dt*100) iso 0 0 $(dt*1000)
fix 1 all npt temp 2300 2300 0.10000000000000000555 iso 0 0 $(dt*1000)
fix 1 all npt temp 2300 2300 0.10000000000000000555 iso 0 0 1
print """
<--------------------------------------------------------------------->
<------------------ Equilibrating at temperature $T ----------------->
<--------------------------------------------------------------------->
"""

<--------------------------------------------------------------------->
<------------------ Equilibrating at temperature 2300 ----------------->
<--------------------------------------------------------------------->

run 150000
Last active /omp style is pair_style eam/alloy/omp
Step Temp Volume Press KinEng PotEng Density
0         2300    18058.405    2863.9907    407.59602   -5276.3845    7.4350233
Averages over the last 76 of 151 rows, steps 75000 to 150000:
Temp Volume Press KinEng PotEng Density
2296.82 17955 -1556.27 407.033 -5312 7.47797
Loop time of 535.241 on 8 procs for 150000 steps with 1372 atoms

fix out_file_1 all print 1000 "$(step) $(temp) $(press) $(vol) $(ke) $(pe) $(density)" file one_phase_cooling_$T.txt screen no title  "step temp press vol ke pe density"
fix out_file_1 all print 1000 "$(step) $(temp) $(press) $(vol) $(ke) $(pe) $(density)" file one_phase_cooling_2300.txt screen no title  "step temp press vol ke pe density"
# dump 3 all custom 1000 traj_npt_new.lammpstrj id type x y z
run 50000
Last active /omp style is pair_style eam/alloy/omp
Step Temp Volume Press KinEng PotEng Density
150000    2263.8348    17976.488   -3580.0484    401.18697   -5313.0676    7.4689039
Averages over the last 26 of 51 rows, steps 175000 to 200000:
Temp Volume Press KinEng PotEng Density
2304.44 17946.7 -292.612 408.383 -5311.12 7.48143
Loop time of 178.779 on 8 procs for 50000 steps with 1372 atoms

unfix out_file_1
unfix 1
# # clear
# write_data after_cooling_$T.in
# write_restart after_cooling_$T.lmp
next loopVar
# # thermo_modify flush yes
jump in.lmp ensemble

variable T equal 2500-3*100
velocity all create $T 123123
velocity all create 2200 123123
reset_timestep 0
fix 1 all npt temp $T $T $(dt*100) iso 0 0 $(dt*1000)
fix 1 all npt temp 2200 $T $(dt*100) iso 0 0 $(dt*1000)
fix 1 all npt temp 2200 2200 $(dt*100) iso 0 0 $(dt*1000)
fix 1 all npt temp 2200 2200 0.10000000000000000555 iso 0 0 $(dt*1000)
fix 1 all npt temp 2200 2200 0.10000000000000000555 iso 0 0 1
print """
<--------------------------------------------------------------------->
<------------------ Equilibrating at temperature $T ----------------->
<--------------------------------------------------------------------->
"""

<--------------------------------------------------------------------->
<------------------ Equilibrating at temperature 2200 ----------------->
<--------------------------------------------------------------------->

run 150000
Last active /omp style is pair_style eam/alloy/omp
Step Temp Volume Press KinEng PotEng Density
0         2200    17854.799    2155.8398    389.87445    -5325.348    7.5198082
Averages over the last 76 of 151 rows, steps 75000 to 150000:
Temp Volume Press KinEng PotEng Density
2203.62 17810.9 30.4702 390.517 -5341.23 7.53849
Loop time of 537.074 on 8 procs for 150000 steps with 1372 atoms

fix out_file_1 all print 1000 "$(step) $(temp) $(press) $(vol) $(ke) $(pe) $(density)" file one_phase_cooling_$T.txt screen no title  "step temp press vol ke pe density"
fix out_file_1 all print 1000 "$(step) $(temp) $(press) $(vol) $(ke) $(pe) $(density)" file one_phase_cooling_2200.txt screen no title  "step temp press vol ke pe density"
# dump 3 all custom 1000 traj_npt_new.lammpstrj id type x y z
run 50000
Last active /omp style is pair_style eam/alloy/omp
Step Temp Volume Press KinEng PotEng Density
150000    2193.1536    17885.174   -5968.9567    388.66115   -5341.1301     7.507037
Averages over the last 26 of 51 rows, steps 175000 to 200000:
Temp Volume Press KinEng PotEng Density
2206.27 17820.1 -423.931 390.986 -5340.17 7.5346
Loop time of 177.975 on 8 procs for 50000 steps with 1372 atoms

unfix out_file_1
unfix 1
# # clear
# write_data after_cooling_$T.in
# write_restart after_cooling_$T.lmp
next loopVar
# # thermo_modify flush yes
jump in.lmp ensemble

variable T equal 2500-4*100
velocity all create $T 123123
velocity all create 2100 123123
reset_timestep 0
fix 1 all npt temp $T $T $(dt*100) iso 0 0 $(dt*1000)
fix 1 all npt temp 2100 $T $(dt*100) iso 0 0 $(dt*1000)
fix 1 all npt temp 2100 2100 $(dt*100) iso 0 0 $(dt*1000)
fix 1 all npt temp 2100 2100 0.10000000000000000555 iso 0 0 $(dt*1000)
fix 1 all npt temp 2100 2100 0.10000000000000000555 iso 0 0 1
print """
<--------------------------------------------------------------------->
<------------------ Equilibrating at temperature $T ----------------->
<--------------------------------------------------------------------->
"""

<--------------------------------------------------------------------->
<------------------ Equilibrating at temperature 2100 ----------------->
<--------------------------------------------------------------------->

run 150000
Last active /omp style is pair_style eam/alloy/omp
Step Temp Volume Press KinEng PotEng Density
0         2100     17838.72   -6761.7365    372.15288   -5350.9356     7.526586
Averages over the last 76 of 151 rows, steps 75000 to 150000:
Temp Volume Press KinEng PotEng Density
2105.17 17696.9 49.4035 373.069 -5367.97 7.587
Loop time of 544.802 on 8 procs for 150000 steps with 1372 atoms

fix out_file_1 all print 1000 "$(step) $(temp) $(press) $(vol) $(ke) $(pe) $(density)" file one_phase_cooling_$T.txt screen no title  "step temp press vol ke pe density"
fix out_file_1 all print 1000 "$(step) $(temp) $(press) $(vol) $(ke) $(pe) $(density)" file one_phase_cooling_2100.txt screen no title  "step temp press vol ke pe density"
# dump 3 all custom 1000 traj_npt_new.lammpstrj id type x y z
run 50000
Last active /omp style is pair_style eam/alloy/omp
Step Temp Volume Press KinEng PotEng Density
150000    2150.2422    17695.538    2559.4036    381.05658   -5360.0437    7.5874867
Averages over the last 26 of 51 rows, steps 175000 to 200000:
Temp Volume Press KinEng PotEng Density
2110.07 17693.9 192.185 373.938 -5367.69 7.58834
Loop time of 179.245 on 8 procs for 50000 steps with 1372 atoms

unfix out_file_1
unfix 1
# # clear
# write_data after_cooling_$T.in
# write_restart after_cooling_$T.lmp
next loopVar
# # thermo_modify flush yes
jump in.lmp ensemble

variable T equal 2500-5*100
velocity all create $T 123123
velocity all create 2000 123123
reset_timestep 0
fix 1 all npt temp $T $T $(dt*100) iso 0 0 $(dt*1000)
fix 1 all npt temp 2000 $T $(dt*100) iso 0 0 $(dt*1000)
fix 1 all npt temp 2000 2000 $(dt*100) iso 0 0 $(dt*1000)
fix 1 all npt temp 2000 2000 0.10000000000000000555 iso 0 0 $(dt*1000)
fix 1 all npt temp 2000 2000 0.10000000000000000555 iso 0 0 1
print """
<--------------------------------------------------------------------->
<------------------ Equilibrating at temperature $T ----------------->
<--------------------------------------------------------------------->
"""

<--------------------------------------------------------------------->
<------------------ Equilibrating at temperature 2000 ----------------->
<--------------------------------------------------------------------->

run 150000
Last active /omp style is pair_style eam/alloy/omp
Step Temp Volume Press KinEng PotEng Density
0         2000     17763.85   -5925.2584    354.43132   -5363.2746    7.5583087
Averages over the last 76 of 151 rows, steps 75000 to 150000:
Temp Volume Press KinEng PotEng Density
2000.7 17568.1 367.883 354.555 -5396.89 7.64266
Loop time of 536.97 on 8 procs for 150000 steps with 1372 atoms

fix out_file_1 all print 1000 "$(step) $(temp) $(press) $(vol) $(ke) $(pe) $(density)" file one_phase_cooling_$T.txt screen no title  "step temp press vol ke pe density"
fix out_file_1 all print 1000 "$(step) $(temp) $(press) $(vol) $(ke) $(pe) $(density)" file one_phase_cooling_2000.txt screen no title  "step temp press vol ke pe density"
# dump 3 all custom 1000 traj_npt_new.lammpstrj id type x y z
run 50000
Last active /omp style is pair_style eam/alloy/omp
Step Temp Volume Press KinEng PotEng Density
150000    2041.2397     17526.52     1399.651    361.73963   -5406.1559    7.6606571
Averages over the last 26 of 51 rows, steps 175000 to 200000:
Temp Volume Press KinEng PotEng Density
1992.5 17578 294.061 353.101 -5394.11 7.63836
Loop time of 178.896 on 8 procs for 50000 steps with 1372 atoms

unfix out_file_1
unfix 1
# # clear
# write_data after_cooling_$T.in
# write_restart after_cooling_$T.lmp
next loopVar
# # thermo_modify flush yes
jump in.lmp ensemble

variable T equal 2500-6*100
velocity all create $T 123123
velocity all create 1900 123123
reset_timestep 0
fix 1 all npt temp $T $T $(dt*100) iso 0 0 $(dt*1000)
fix 1 all npt temp 1900 $T $(dt*100) iso 0 0 $(dt*1000)
fix 1 all npt temp 1900 1900 $(dt*100) iso 0 0 $(dt*1000)
fix 1 all npt temp 1900 1900 0.10000000000000000555 iso 0 0 $(dt*1000)
fix 1 all npt temp 1900 1900 0.10000000000000000555 iso 0 0 1
print """
<--------------------------------------------------------------------->
<------------------ Equilibrating at temperature $T ----------------->
<--------------------------------------------------------------------->
"""

<--------------------------------------------------------------------->
<------------------ Equilibrating at temperature 1900 ----------------->
<--------------------------------------------------------------------->

run 150000
Last active /omp style is pair_style eam/alloy/omp
Step Temp Volume Press KinEng PotEng Density
0         1900    17660.713   -4627.6196    336.70975   -5384.7736    7.6024487
Averages over the last 76 of 151 rows, steps 75000 to 150000:
Temp Volume Press KinEng PotEng Density
1896.6 17459.9 45.6231 336.107 -5423.31 7.69001
Loop time of 537.92 on 8 procs for 150000 steps with 1372 atoms

fix out_file_1 all print 1000 "$(step) $(temp) $(press) $(vol) $(ke) $(pe) $(density)" file one_phase_cooling_$T.txt screen no title  "step temp press vol ke pe density"
fix out_file_1 all print 1000 "$(step) $(temp) $(press) $(vol) $(ke) $(pe) $(density)" file one_phase_cooling_1900.txt screen no title  "step temp press vol ke pe density"
# dump 3 all custom 1000 traj_npt_new.lammpstrj id type x y z
run 50000
Last active /omp style is pair_style eam/alloy/omp
Step Temp Volume Press KinEng PotEng Density
150000    1891.4023    17483.844    1865.9756     335.1861     -5412.56    7.6793558
Averages over the last 26 of 51 rows, steps 175000 to 200000:
Temp Volume Press KinEng PotEng Density
1884.21 17465.5 499.8 333.912 -5419.5 7.68758
Loop time of 179.994 on 8 procs for 50000 steps with 1372 atoms

unfix out_file_1
unfix 1
# # clear
# write_data after_cooling_$T.in
# write_restart after_cooling_$T.lmp
next loopVar
# # thermo_modify flush yes
jump in.lmp ensemble

variable T equal 2500-7*100
velocity all create $T 123123
velocity all create 1800 123123
reset_timestep 0
fix 1 all npt temp $T $T $(dt*100) iso 0 0 $(dt*1000)
fix 1 all npt temp 1800 $T $(dt*100) iso 0 0 $(dt*1000)
fix 1 all npt temp 1800 1800 $(dt*100) iso 0 0 $(dt*1000)
fix 1 all npt temp 1800 1800 0.10000000000000000555 iso 0 0 $(dt*1000)
fix 1 all npt temp 1800 1800 0.10000000000000000555 iso 0 0 1
print """
<--------------------------------------------------------------------->
<------------------ Equilibrating at temperature $T ----------------->
<--------------------------------------------------------------------->
"""

<--------------------------------------------------------------------->
<------------------ Equilibrating at temperature 1800 ----------------->
<--------------------------------------------------------------------->

run 150000
Last active /omp style is pair_style eam/alloy/omp
Step Temp Volume Press KinEng PotEng Density
0         1800    17631.481   -12980.881    318.98819   -5415.3199     7.615053
Averages over the last 76 of 151 rows, steps 75000 to 150000:
Temp Volume Press KinEng PotEng Density
1803.17 17336.1 -91.2396 319.549 -5453.27 7.74493
Loop time of 539.196 on 8 procs for 150000 steps with 1372 atoms

fix out_file_1 all print 1000 "$(step) $(temp) $(press) $(vol) $(ke) $(pe) $(density)" file one_phase_cooling_$T.txt screen no title  "step temp press vol ke pe density"
fix out_file_1 all print 1000 "$(step) $(temp) $(press) $(vol) $(ke) $(pe) $(density)" file one_phase_cooling_1800.txt screen no title  "step temp press vol ke pe density"
# dump 3 all custom 1000 traj_npt_new.lammpstrj id type x y z
run 50000
Last active /omp style is pair_style eam/alloy/omp
Step Temp Volume Press KinEng PotEng Density
150000    1766.0827    17316.644    4920.0627    312.97751   -5435.4428    7.7535038
Averages over the last 26 of 51 rows, steps 175000 to 200000:
Temp Volume Press KinEng PotEng Density
1795.87 17340.7 44.9936 318.256 -5451.01 7.74286
Loop time of 180.054 on 8 procs for 50000 steps with 1372 atoms

unfix out_file_1
unfix 1
# # clear
# write_data after_cooling_$T.in
# write_restart after_cooling_$T.lmp
next loopVar
# # thermo_modify flush yes
jump in.lmp ensemble

variable T equal 2500-8*100
velocity all create $T 123123
velocity all create 1700 123123
reset_timestep 0
fix 1 all npt temp $T $T $(dt*100) iso 0 0 $(dt*1000)
fix 1 all npt temp 1700 $T $(dt*100) iso 0 0 $(dt*1000)
fix 1 all npt temp 1700 1700 $(dt*100) iso 0 0 $(dt*1000)
fix 1 all npt temp 1700 1700 0.10000000000000000555 iso 0 0 $(dt*1000)
fix 1 all npt temp 1700 1700 0.10000000000000000555 iso 0 0 1
print """
<--------------------------------------------------------------------->
<------------------ Equilibrating at temperature $T ----------------->
<--------------------------------------------------------------------->
"""

<--------------------------------------------------------------------->
<------------------ Equilibrating at temperature 1700 ----------------->
<--------------------------------------------------------------------->

run 150000
Last active /omp style is pair_style eam/alloy/omp
Step Temp Volume Press KinEng PotEng Density
0         1700    17390.808   -6769.3093    301.26662   -5455.8647    7.7204386
Averages over the last 76 of 151 rows, steps 75000 to 150000:
Temp Volume Press KinEng PotEng Density
1693.53 17215.4 391.192 300.119 -5481.32 7.79923
Loop time of 542.258 on 8 procs for 150000 steps with 1372 atoms

fix out_file_1 all print 1000 "$(step) $(temp) $(press) $(vol) $(ke) $(pe) $(density)" file one_phase_cooling_$T.txt screen no title  "step temp press vol ke pe density"
fix out_file_1 all print 1000 "$(step) $(temp) $(press) $(vol) $(ke) $(pe) $(density)" file one_phase_cooling_1700.txt screen no title  "step temp press vol ke pe density"
# dump 3 all custom 1000 traj_npt_new.lammpstrj id type x y z
run 50000
Last active /omp style is pair_style eam/alloy/omp
Step Temp Volume Press KinEng PotEng Density
150000    1678.6224    17122.033    6484.8059    297.47817   -5487.0721    7.8416309
Averages over the last 26 of 51 rows, steps 175000 to 200000:
Temp Volume Press KinEng PotEng Density
1689.47 17212.9 491.447 299.4 -5481.88 7.80042
Loop time of 179.84 on 8 procs for 50000 steps with 1372 atoms

unfix out_file_1
unfix 1
# # clear
# write_data after_cooling_$T.in
# write_restart after_cooling_$T.lmp
next loopVar
# # thermo_modify flush yes
jump in.lmp ensemble

variable T equal 2500-9*100
velocity all create $T 123123
velocity all create 1600 123123
reset_timestep 0
fix 1 all npt temp $T $T $(dt*100) iso 0 0 $(dt*1000)
fix 1 all npt temp 1600 $T $(dt*100) iso 0 0 $(dt*1000)
fix 1 all npt temp 1600 1600 $(dt*100) iso 0 0 $(dt*1000)
fix 1 all npt temp 1600 1600 0.10000000000000000555 iso 0 0 $(dt*1000)
fix 1 all npt temp 1600 1600 0.10000000000000000555 iso 0 0 1
print """
<--------------------------------------------------------------------->
<------------------ Equilibrating at temperature $T ----------------->
<--------------------------------------------------------------------->
"""

<--------------------------------------------------------------------->
<------------------ Equilibrating at temperature 1600 ----------------->
<--------------------------------------------------------------------->

run 150000
Last active /omp style is pair_style eam/alloy/omp
Step Temp Volume Press KinEng PotEng Density
0         1600    17228.583      -5494.9    283.54505   -5490.7552    7.7931343
Averages over the last 76 of 151 rows, steps 75000 to 150000:
Temp Volume Press KinEng PotEng Density
1605.44 17105.3 -57.459 284.509 -5510.24 7.8494
Loop time of 544.519 on 8 procs for 150000 steps with 1372 atoms

fix out_file_1 all print 1000 "$(step) $(temp) $(press) $(vol) $(ke) $(pe) $(density)" file one_phase_cooling_$T.txt screen no title  "step temp press vol ke pe density"
fix out_file_1 all print 1000 "$(step) $(temp) $(press) $(vol) $(ke) $(pe) $(density)" file one_phase_cooling_1600.txt screen no title  "step temp press vol ke pe density"
# dump 3 all custom 1000 traj_npt_new.lammpstrj id type x y z
run 50000
Last active /omp style is pair_style eam/alloy/omp
Step Temp Volume Press KinEng PotEng Density
150000    1620.6476     17173.09   -8172.0588    287.20414   -5518.1056    7.8183168
Averages over the last 26 of 51 rows, steps 175000 to 200000:
Temp Volume Press KinEng PotEng Density
1600.3 17092.3 -180.606 283.598 -5514.28 7.85534
Loop time of 181.082 on 8 procs for 50000 steps with 1372 atoms

unfix out_file_1
unfix 1
# # clear
# write_data after_cooling_$T.in
# write_restart after_cooling_$T.lmp
next loopVar
# # thermo_modify flush yes
jump in.lmp ensemble

variable T equal 2500-10*100
velocity all create $T 123123
velocity all create 1500 123123
reset_timestep 0
fix 1 all npt temp $T $T $(dt*100) iso 0 0 $(dt*1000)
fix 1 all npt temp 1500 $T $(dt*100) iso 0 0 $(dt*1000)
fix 1 all npt temp 1500 1500 $(dt*100) iso 0 0 $(dt*1000)
fix 1 all npt temp 1500 1500 0.10000000000000000555 iso 0 0 $(dt*1000)
fix 1 all npt temp 1500 1500 0.10000000000000000555 iso 0 0 1
print """
<--------------------------------------------------------------------->
<------------------ Equilibrating at temperature $T ----------------->
<--------------------------------------------------------------------->
"""

<--------------------------------------------------------------------->
<------------------ Equilibrating at temperature 1500 ----------------->
<--------------------------------------------------------------------->

run 150000
Last active /omp style is pair_style eam/alloy/omp
Step Temp Volume Press KinEng PotEng Density
0         1500     17101.23    287.89369    265.82349   -5506.8373    7.8511699
Averages over the last 76 of 151 rows, steps 75000 to 150000:
Temp Volume Press KinEng PotEng Density
1498.46 16980.7 74.9302 265.551 -5541.17 7.907
Loop time of 544.392 on 8 procs for 150000 steps with 1372 atoms

fix out_file_1 all print 1000 "$(step) $(temp) $(press) $(vol) $(ke) $(pe) $(density)" file one_phase_cooling_$T.txt screen no title  "step temp press vol ke pe density"
fix out_file_1 all print 1000 "$(step) $(temp) $(press) $(vol) $(ke) $(pe) $(density)" file one_phase_cooling_1500.txt screen no title  "step temp press vol ke pe density"
# dump 3 all custom 1000 traj_npt_new.lammpstrj id type x y z
run 50000
Last active /omp style is pair_style eam/alloy/omp
Step Temp Volume Press KinEng PotEng Density
150000    1437.5397    17037.096   -5923.7271    254.75454    -5539.074    7.8807246
Averages over the last 26 of 51 rows, steps 175000 to 200000:
Temp Volume Press KinEng PotEng Density
1511.55 16975.7 117.039 267.87 -5542.9 7.9093
Loop time of 181.214 on 8 procs for 50000 steps with 1372 atoms

unfix out_file_1
unfix 1
# # clear
# write_data after_cooling_$T.in
# write_restart after_cooling_$T.lmp
next loopVar
# # thermo_modify flush yes
jump in.lmp ensemble

variable T equal 2500-11*100
velocity all create $T 123123
velocity all create 1400 123123
reset_timestep 0
fix 1 all npt temp $T $T $(dt*100) iso 0 0 $(dt*1000)
fix 1 all npt temp 1400 $T $(dt*100) iso 0 0 $(dt*1000)
fix 1 all npt temp 1400 1400 $(dt*100) iso 0 0 $(dt*1000)
fix 1 all npt temp 1400 1400 0.10000000000000000555 iso 0 0 $(dt*1000)
fix 1 all npt temp 1400 1400 0.10000000000000000555 iso 0 0 1
print """
<--------------------------------------------------------------------->
<------------------ Equilibrating at temperature $T ----------------->
<--------------------------------------------------------------------->
"""

<--------------------------------------------------------------------->
<------------------ Equilibrating at temperature 1400 ----------------->
<--------------------------------------------------------------------->

run 150000
Last active /omp style is pair_style eam/alloy/omp
Step Temp Volume Press KinEng PotEng Density
0         1400    16969.066   -716.34861    248.10192   -5543.3599    7.9123189
Averages over the last 76 of 151 rows, steps 75000 to 150000:
Temp Volume Press KinEng PotEng Density
1397.08 16859.3 -95.8812 247.584 -5572.69 7.96388
Loop time of 544.814 on 8 procs for 150000 steps with 1372 atoms

fix out_file_1 all print 1000 "$(step) $(temp) $(press) $(vol) $(ke) $(pe) $(density)" file one_phase_cooling_$T.txt screen no title  "step temp press vol ke pe density"
fix out_file_1 all print 1000 "$(step) $(temp) $(press) $(vol) $(ke) $(pe) $(density)" file one_phase_cooling_1400.txt screen no title  "step temp press vol ke pe density"
# dump 3 all custom 1000 traj_npt_new.lammpstrj id type x y z
run 50000
Last active /omp style is pair_style eam/alloy/omp
Step Temp Volume Press KinEng PotEng Density
150000    1427.5575    16863.157   -760.82748    252.98555   -5573.6802     7.962012
Averages over the last 26 of 51 rows, steps 175000 to 200000:
Temp Volume Press KinEng PotEng Density
1397.78 16860 542.972 247.708 -5570.62 7.96356
Loop time of 183.921 on 8 procs for 50000 steps with 1372 atoms

unfix out_file_1
unfix 1
# # clear
# write_data after_cooling_$T.in
# write_restart after_cooling_$T.lmp
next loopVar
# # thermo_modify flush yes
jump in.lmp ensemble

variable T equal 2500-12*100
velocity all create $T 123123
velocity all create 1300 123123
reset_timestep 0
fix 1 all npt temp $T $T $(dt*100) iso 0 0 $(dt*1000)
fix 1 all npt temp 1300 $T $(dt*100) iso 0 0 $(dt*1000)
fix 1 all npt temp 1300 1300 $(dt*100) iso 0 0 $(dt*1000)
fix 1 all npt temp 1300 1300 0.10000000000000000555 iso 0 0 $(dt*1000)
fix 1 all npt temp 1300 1300 0.10000000000000000555 iso 0 0 1
print """
<--------------------------------------------------------------------->
<------------------ Equilibrating at temperature $T ----------------->
<--------------------------------------------------------------------->
"""

<--------------------------------------------------------------------->
<------------------ Equilibrating at temperature 1300 ----------------->
<--------------------------------------------------------------------->

run 150000
Last active /omp style is pair_style eam/alloy/omp
Step Temp Volume Press KinEng PotEng Density
0         1300    16873.568   -639.18244    230.38036   -5567.4624    7.9570996
Averages over the last 76 of 151 rows, steps 75000 to 150000:
Temp Volume Press KinEng PotEng Density
1304.39 16736.2 197.372 231.158 -5604.24 8.02245
Loop time of 545.942 on 8 procs for 150000 steps with 1372 atoms

fix out_file_1 all print 1000 "$(step) $(temp) $(press) $(vol) $(ke) $(pe) $(density)" file one_phase_cooling_$T.txt screen no title  "step temp press vol ke pe density"
fix out_file_1 all print 1000 "$(step) $(temp) $(press) $(vol) $(ke) $(pe) $(density)" file one_phase_cooling_1300.txt screen no title  "step temp press vol ke pe density"
# dump 3 all custom 1000 traj_npt_new.lammpstrj id type x y z
run 50000
Last active /omp style is pair_style eam/alloy/omp
Step Temp Volume Press KinEng PotEng Density
150000    1291.5032    16750.198     167.2848    228.87459   -5598.5757    8.0157058
Averages over the last 26 of 51 rows, steps 175000 to 200000:
Temp Volume Press KinEng PotEng Density
1306.61 16749.7 -830.089 231.552 -5603.82 8.01604
Loop time of 183.653 on 8 procs for 50000 steps with 1372 atoms

unfix out_file_1
unfix 1
# # clear
# write_data after_cooling_$T.in
# write_restart after_cooling_$T.lmp
next loopVar
# # thermo_modify flush yes
jump in.lmp ensemble

variable T equal 2500-13*100
velocity all create $T 123123
velocity all create 1200 123123
reset_timestep 0
fix 1 all npt temp $T $T $(dt*100) iso 0 0 $(dt*1000)
fix 1 all npt temp 1200 $T $(dt*100) iso 0 0 $(dt*1000)
fix 1 all npt temp 1200 1200 $(dt*100) iso 0 0 $(dt*1000)
fix 1 all npt temp 1200 1200 0.10000000000000000555 iso 0 0 $(dt*1000)
fix 1 all npt temp 1200 1200 0.10000000000000000555 iso 0 0 1
print """
<--------------------------------------------------------------------->
<------------------ Equilibrating at temperature $T ----------------->
<--------------------------------------------------------------------->
"""

<--------------------------------------------------------------------->
<------------------ Equilibrating at temperature 1200 ----------------->
<--------------------------------------------------------------------->

run 150000
Last active /omp style is pair_style eam/alloy/omp
Step Temp Volume Press KinEng PotEng Density
0         1200    16751.897     -2885.32    212.65879    -5605.246    8.0148928
Averages over the last 76 of 151 rows, steps 75000 to 150000:
Temp Volume Press KinEng PotEng Density
1200.56 16602.9 1604.24 212.758 -5635.45 8.0869
Loop time of 548.11 on 8 procs for 150000 steps with 1372 atoms

fix out_file_1 all print 1000 "$(step) $(temp) $(press) $(vol) $(ke) $(pe) $(density)" file one_phase_cooling_$T.txt screen no title  "step temp press vol ke pe density"
fix out_file_1 all print 1000 "$(step) $(temp) $(press) $(vol) $(ke) $(pe) $(density)" file one_phase_cooling_1200.txt screen no title  "step temp press vol ke pe density"
# dump 3 all custom 1000 traj_npt_new.lammpstrj id type x y z
run 50000
Last active /omp style is pair_style eam/alloy/omp
Step Temp Volume Press KinEng PotEng Density
150000    1208.5511    16603.521   -1940.3207    214.17419   -5643.0978    8.0865172
Averages over the last 26 of 51 rows, steps 175000 to 200000:
Temp Volume Press KinEng PotEng Density
1190.34 16624 -899.356 210.948 -5635.63 8.07658
Loop time of 188.252 on 8 procs for 50000 steps with 1372 atoms

unfix out_file_1
unfix 1
# # clear
# write_data after_cooling_$T.in
# write_restart after_cooling_$T.lmp
next loopVar
# # thermo_modify flush yes
jump in.lmp ensemble

variable T equal 2500-14*100
velocity all create $T 123123
velocity all create 1100 123123
reset_timestep 0
fix 1 all npt temp $T $T $(dt*100) iso 0 0 $(dt*1000)
fix 1 all npt temp 1100 $T $(dt*100) iso 0 0 $(dt*1000)
fix 1 all npt temp 1100 1100 $(dt*100) iso 0 0 $(dt*1000)
fix 1 all npt temp 1100 1100 0.10000000000000000555 iso 0 0 $(dt*1000)
fix 1 all npt temp 1100 1100 0.10000000000000000555 iso 0 0 1
print """
<--------------------------------------------------------------------->
<------------------ Equilibrating at temperature $T ----------------->
<--------------------------------------------------------------------->
"""

<--------------------------------------------------------------------->
<------------------ Equilibrating at temperature 1100 ----------------->
<--------------------------------------------------------------------->

run 150000
Last active /omp style is pair_style eam/alloy/omp
Step Temp Volume Press KinEng PotEng Density
0         1100    16625.818   -4155.2501    194.93722   -5640.5735    8.0756723
Averages over the last 76 of 151 rows, steps 75000 to 150000:
Temp Volume Press KinEng PotEng Density
1102.89 16013.2 22.1188 195.449 -5797.43 8.38465
Loop time of 547.895 on 8 procs for 150000 steps with 1372 atoms

fix out_file_1 all print 1000 "$(step) $(temp) $(press) $(vol) $(ke) $(pe) $(density)" file one_phase_cooling_$T.txt screen no title  "step temp press vol ke pe density"
fix out_file_1 all print 1000 "$(step) $(temp) $(press) $(vol) $(ke) $(pe) $(density)" file one_phase_cooling_1100.txt screen no title  "step temp press vol ke pe density"
# dump 3 all custom 1000 traj_npt_new.lammpstrj id type x y z
run 50000
Last active /omp style is pair_style eam/alloy/omp
Step Temp Volume Press KinEng PotEng Density
150000    1086.4484    15996.561    371.55513    192.53567   -5799.5931    8.3933455
Averages over the last 26 of 51 rows, steps 175000 to 200000:
Temp Volume Press KinEng PotEng Density
1099.61 16017.1 -646.439 194.869 -5797.72 8.38262
Loop time of 182.268 on 8 procs for 50000 steps with 1372 atoms

unfix out_file_1
unfix 1
# # clear
# write_data after_cooling_$T.in
# write_restart after_cooling_$T.lmp
next loopVar
# # thermo_modify flush yes
jump in.lmp ensemble

variable T equal 2500-15*100
velocity all create $T 123123
velocity all create 1000 123123
reset_timestep 0
fix 1 all npt temp $T $T $(dt*100) iso 0 0 $(dt*1000)
fix 1 all npt temp 1000 $T $(dt*100) iso 0 0 $(dt*1000)
fix 1 all npt temp 1000 1000 $(dt*100) iso 0 0 $(dt*1000)
fix 1 all npt temp 1000 1000 0.10000000000000000555 iso 0 0 $(dt*1000)
fix 1 all npt temp 1000 1000 0.10000000000000000555 iso 0 0 1
print """
<--------------------------------------------------------------------->
<------------------ Equilibrating at temperature $T ----------------->
<--------------------------------------------------------------------->
"""

<--------------------------------------------------------------------->
<------------------ Equilibrating at temperature 1000 ----------------->
<--------------------------------------------------------------------->

run 150000
Last active /omp style is pair_style eam/alloy/omp
Step Temp Volume Press KinEng PotEng Density
0         1000    16081.414   -8331.0533    177.21566   -5797.2262    8.3490584
Averages over the last 76 of 151 rows, steps 75000 to 150000:
Temp Volume Press KinEng PotEng Density
1002.06 15934.2 -197.412 177.58 -5819.09 8.42622
Loop time of 545.852 on 8 procs for 150000 steps with 1372 atoms

fix out_file_1 all print 1000 "$(step) $(temp) $(press) $(vol) $(ke) $(pe) $(density)" file one_phase_cooling_$T.txt screen no title  "step temp press vol ke pe density"
fix out_file_1 all print 1000 "$(step) $(temp) $(press) $(vol) $(ke) $(pe) $(density)" file one_phase_cooling_1000.txt screen no title  "step temp press vol ke pe density"
# dump 3 all custom 1000 traj_npt_new.lammpstrj id type x y z
run 50000
Last active /omp style is pair_style eam/alloy/omp
Step Temp Volume Press KinEng PotEng Density
150000    1021.9009    15928.712    550.80699    181.09684   -5818.3107     8.429097
Averages over the last 26 of 51 rows, steps 175000 to 200000:
Temp Volume Press KinEng PotEng Density
1001.43 15935.5 157.95 177.47 -5817.49 8.42555
Loop time of 183.404 on 8 procs for 50000 steps with 1372 atoms

unfix out_file_1
unfix 1
# # clear
# write_data after_cooling_$T.in
# write_restart after_cooling_$T.lmp
next loopVar
# # thermo_modify flush yes
jump in.lmp ensemble

variable T equal 2500-16*100
velocity all create $T 123123
velocity all create 900 123123
reset_timestep 0
fix 1 all npt temp $T $T $(dt*100) iso 0 0 $(dt*1000)
fix 1 all npt temp 900 $T $(dt*100) iso 0 0 $(dt*1000)
fix 1 all npt temp 900 900 $(dt*100) iso 0 0 $(dt*1000)
fix 1 all npt temp 900 900 0.10000000000000000555 iso 0 0 $(dt*1000)
fix 1 all npt temp 900 900 0.10000000000000000555 iso 0 0 1
print """
<--------------------------------------------------------------------->
<------------------ Equilibrating at temperature $T ----------------->
<--------------------------------------------------------------------->
"""

<--------------------------------------------------------------------->
<------------------ Equilibrating at temperature 900 ----------------->
<--------------------------------------------------------------------->

run 150000
Last active /omp style is pair_style eam/alloy/omp
Step Temp Volume Press KinEng PotEng Density
0          900    15860.623    6066.3899    159.49409   -5820.7502    8.4652829
Averages over the last 76 of 151 rows, steps 75000 to 150000:
Temp Volume Press KinEng PotEng Density
901.17 15853.8 53.9288 159.701 -5840.38 8.46897
Loop time of 561.473 on 8 procs for 150000 steps with 1372 atoms

fix out_file_1 all print 1000 "$(step) $(temp) $(press) $(vol) $(ke) $(pe) $(density)" file one_phase_cooling_$T.txt screen no title  "step temp press vol ke pe density"
fix out_file_1 all print 1000 "$(step) $(temp) $(press) $(vol) $(ke) $(pe) $(density)" file one_phase_cooling_900.txt screen no title  "step temp press vol ke pe density"
# dump 3 all custom 1000 traj_npt_new.lammpstrj id type x y z
run 50000
Last active /omp style is pair_style eam/alloy/omp
Step Temp Volume Press KinEng PotEng Density
150000    905.72213    15855.773   -173.05531    160.50814   -5840.7876    8.4678723
Averages over the last 26 of 51 rows, steps 175000 to 200000:
Temp Volume Press KinEng PotEng Density
900.119 15855 -22.0932 159.515 -5840.04 8.46834
Loop time of 200.387 on 8 procs for 50000 steps with 1372 atoms

unfix out_file_1
unfix 1
# # clear
# write_data after_cooling_$T.in
# write_restart after_cooling_$T.lmp
next loopVar
# # thermo_modify flush yes
jump in.lmp ensemble

variable T equal 2500-17*100
velocity all create $T 123123
velocity all create 800 123123
reset_timestep 0
fix 1 all npt temp $T $T $(dt*100) iso 0 0 $(dt*1000)
fix 1 all npt temp 800 $T $(dt*100) iso 0 0 $(dt*1000)
fix 1 all npt temp 800 800 $(dt*100) iso 0 0 $(dt*1000)
fix 1 all npt temp 800 800 0.10000000000000000555 iso 0 0 $(dt*1000)
fix 1 all npt temp 800 800 0.10000000000000000555 iso 0 0 1
print """
<--------------------------------------------------------------------->
<------------------ Equilibrating at temperature $T ----------------->
<--------------------------------------------------------------------->
"""

<--------------------------------------------------------------------->
<------------------ Equilibrating at temperature 800 ----------------->
<--------------------------------------------------------------------->

run 150000
Last active /omp style is pair_style eam/alloy/omp
Step Temp Volume Press KinEng PotEng Density
0          800    15888.068   -5918.1701    141.77253   -5842.1261    8.4506601
Averages over the last 76 of 151 rows, steps 75000 to 150000:
Temp Volume Press KinEng PotEng Density
797.561 15780.1 81.2208 141.34 -5860.76 8.50851
Loop time of 548.494 on 8 procs for 150000 steps with 1372 atoms

fix out_file_1 all print 1000 "$(step) $(temp) $(press) $(vol) $(ke) $(pe) $(density)" file one_phase_cooling_$T.txt screen no title  "step temp press vol ke pe density"
fix out_file_1 all print 1000 "$(step) $(temp) $(press) $(vol) $(ke) $(pe) $(density)" file one_phase_cooling_800.txt screen no title  "step temp press vol ke pe density"
# dump 3 all custom 1000 traj_npt_new.lammpstrj id type x y z
run 50000
Last active /omp style is pair_style eam/alloy/omp
Step Temp Volume Press KinEng PotEng Density
150000    785.36861    15761.445    2078.5378    139.17962   -5862.1927    8.5185504
Averages over the last 26 of 51 rows, steps 175000 to 200000:
Temp Volume Press KinEng PotEng Density
798.74 15774.9 601.077 141.549 -5860.82 8.51132
Loop time of 182.65 on 8 procs for 50000 steps with 1372 atoms

unfix out_file_1
unfix 1
# # clear
# write_data after_cooling_$T.in
# write_restart after_cooling_$T.lmp
next loopVar
# # thermo_modify flush yes
jump in.lmp ensemble

variable T equal 2500-18*100
velocity all create $T 123123
velocity all create 700 123123
reset_timestep 0
fix 1 all npt temp $T $T $(dt*100) iso 0 0 $(dt*1000)
fix 1 all npt temp 700 $T $(dt*100) iso 0 0 $(dt*1000)
fix 1 all npt temp 700 700 $(dt*100) iso 0 0 $(dt*1000)
fix 1 all npt temp 700 700 0.10000000000000000555 iso 0 0 $(dt*1000)
fix 1 all npt temp 700 700 0.10000000000000000555 iso 0 0 1
print """
<--------------------------------------------------------------------->
<------------------ Equilibrating at temperature $T ----------------->
<--------------------------------------------------------------------->
"""

<--------------------------------------------------------------------->
<------------------ Equilibrating at temperature 700 ----------------->
<--------------------------------------------------------------------->

run 150000
Last active /omp style is pair_style eam/alloy/omp
Step Temp Volume Press KinEng PotEng Density
0          700    15804.606   -4629.9041    124.05096    -5861.682     8.495287
Averages over the last 76 of 151 rows, steps 75000 to 150000:
Temp Volume Press KinEng PotEng Density
700.849 15716 -907.461 124.201 -5881.21 8.54322
Loop time of 544.053 on 8 procs for 150000 steps with 1372 atoms

fix out_file_1 all print 1000 "$(step) $(temp) $(press) $(vol) $(ke) $(pe) $(density)" file one_phase_cooling_$T.txt screen no title  "step temp press vol ke pe density"
fix out_file_1 all print 1000 "$(step) $(temp) $(press) $(vol) $(ke) $(pe) $(density)" file one_phase_cooling_700.txt screen no title  "step temp press vol ke pe density"
# dump 3 all custom 1000 traj_npt_new.lammpstrj id type x y z
run 50000
Last active /omp style is pair_style eam/alloy/omp
Step Temp Volume Press KinEng PotEng Density
150000    699.54622    15703.434    476.89988    123.97054   -5881.2082    8.5500193
Averages over the last 26 of 51 rows, steps 175000 to 200000:
Temp Volume Press KinEng PotEng Density
701.629 15677.3 3554.63 124.34 -5881.64 8.56431
Loop time of 186.831 on 8 procs for 50000 steps with 1372 atoms

unfix out_file_1
unfix 1
# # clear
# write_data after_cooling_$T.in
# write_restart after_cooling_$T.lmp
next loopVar
# # thermo_modify flush yes
jump in.lmp ensemble

variable T equal 2500-19*100
velocity all create $T 123123
velocity all create 600 123123
reset_timestep 0
fix 1 all npt temp $T $T $(dt*100) iso 0 0 $(dt*1000)
fix 1 all npt temp 600 $T $(dt*100) iso 0 0 $(dt*1000)
fix 1 all npt temp 600 600 $(dt*100) iso 0 0 $(dt*1000)
fix 1 all npt temp 600 600 0.10000000000000000555 iso 0 0 $(dt*1000)
fix 1 all npt temp 600 600 0.10000000000000000555 iso 0 0 1
print """
<--------------------------------------------------------------------->
<------------------ Equilibrating at temperature $T ----------------->
<--------------------------------------------------------------------->
"""

<--------------------------------------------------------------------->
<------------------ Equilibrating at temperature 600 ----------------->
<--------------------------------------------------------------------->

run 150000
Last active /omp style is pair_style eam/alloy/omp
Step Temp Volume Press KinEng PotEng Density
0          600    15678.872    3278.4274     106.3294   -5877.5232    8.5634132
Averages over the last 76 of 151 rows, steps 75000 to 150000:
Temp Volume Press KinEng PotEng Density
598.466 15638.1 209.83 106.058 -5900.69 8.58576
Loop time of 543.451 on 8 procs for 150000 steps with 1372 atoms

fix out_file_1 all print 1000 "$(step) $(temp) $(press) $(vol) $(ke) $(pe) $(density)" file one_phase_cooling_$T.txt screen no title  "step temp press vol ke pe density"
fix out_file_1 all print 1000 "$(step) $(temp) $(press) $(vol) $(ke) $(pe) $(density)" file one_phase_cooling_600.txt screen no title  "step temp press vol ke pe density"
# dump 3 all custom 1000 traj_npt_new.lammpstrj id type x y z
run 50000
Last active /omp style is pair_style eam/alloy/omp
Step Temp Volume Press KinEng PotEng Density
150000    585.64371    15650.376    -756.5186    103.78524   -5897.9682    8.5790055
Averages over the last 26 of 51 rows, steps 175000 to 200000:
Temp Volume Press KinEng PotEng Density
596.827 15640.9 -80.5295 105.767 -5901.32 8.58424
Loop time of 183.318 on 8 procs for 50000 steps with 1372 atoms

unfix out_file_1
unfix 1
# # clear
# write_data after_cooling_$T.in
# write_restart after_cooling_$T.lmp
next loopVar
# # thermo_modify flush yes
jump in.lmp ensemble

variable T equal 2500-20*100
velocity all create $T 123123
velocity all create 500 123123
reset_timestep 0
fix 1 all npt temp $T $T $(dt*100) iso 0 0 $(dt*1000)
fix 1 all npt temp 500 $T $(dt*100) iso 0 0 $(dt*1000)
fix 1 all npt temp 500 500 $(dt*100) iso 0 0 $(dt*1000)
fix 1 all npt temp 500 500 0.10000000000000000555 iso 0 0 $(dt*1000)
fix 1 all npt temp 500 500 0.10000000000000000555 iso 0 0 1
print """
<--------------------------------------------------------------------->
<------------------ Equilibrating at temperature $T ----------------->
<--------------------------------------------------------------------->
"""

<--------------------------------------------------------------------->
<------------------ Equilibrating at temperature 500 ----------------->
<--------------------------------------------------------------------->

run 150000
Last active /omp style is pair_style eam/alloy/omp
Step Temp Volume Press KinEng PotEng Density
0          500     15647.67   -2370.6926    88.607829   -5900.0535    8.5804893
Averages over the last 76 of 151 rows, steps 75000 to 150000:
Temp Volume Press KinEng PotEng Density
499.758 15574.4 7.15786 88.565 -5920.2 8.62088
Loop time of 542.683 on 8 procs for 150000 steps with 1372 atoms

fix out_file_1 all print 1000 "$(step) $(temp) $(press) $(vol) $(ke) $(pe) $(density)" file one_phase_cooling_$T.txt screen no title  "step temp press vol ke pe density"
fix out_file_1 all print 1000 "$(step) $(temp) $(press) $(vol) $(ke) $(pe) $(density)" file one_phase_cooling_500.txt screen no title  "step temp press vol ke pe density"
# dump 3 all custom 1000 traj_npt_new.lammpstrj id type x y z
run 50000
Last active /omp style is pair_style eam/alloy/omp
Step Temp Volume Press KinEng PotEng Density
150000    488.72896    15574.924   -918.01493    86.610425   -5922.7225     8.620566
Averages over the last 26 of 51 rows, steps 175000 to 200000:
Temp Volume Press KinEng PotEng Density
499.428 15572.5 183.852 88.5064 -5920.12 8.62194
Loop time of 180.786 on 8 procs for 50000 steps with 1372 atoms

unfix out_file_1
unfix 1
# # clear
# write_data after_cooling_$T.in
# write_restart after_cooling_$T.lmp
next loopVar
# # thermo_modify flush yes
jump in.lmp ensemble

variable T equal 2500-21*100
velocity all create $T 123123
velocity all create 400 123123
reset_timestep 0
fix 1 all npt temp $T $T $(dt*100) iso 0 0 $(dt*1000)
fix 1 all npt temp 400 $T $(dt*100) iso 0 0 $(dt*1000)
fix 1 all npt temp 400 400 $(dt*100) iso 0 0 $(dt*1000)
fix 1 all npt temp 400 400 0.10000000000000000555 iso 0 0 $(dt*1000)
fix 1 all npt temp 400 400 0.10000000000000000555 iso 0 0 1
print """
<--------------------------------------------------------------------->
<------------------ Equilibrating at temperature $T ----------------->
<--------------------------------------------------------------------->
"""

<--------------------------------------------------------------------->
<------------------ Equilibrating at temperature 400 ----------------->
<--------------------------------------------------------------------->

run 150000
Last active /omp style is pair_style eam/alloy/omp
Loop time of 544.223 on 8 procs for 150000 steps with 1372 atoms

fix out_file_1 all print 1000 "$(step) $(temp) $(press) $(vol) $(ke) $(pe) $(density)" file one_phase_cooling_$T.txt screen no title  "step temp press vol ke pe density"
fix out_file_1 all print 1000 "$(step) $(temp) $(press) $(vol) $(ke) $(pe) $(density)" file one_phase_cooling_400.txt screen no title  "step temp press vol ke pe density"
# dump 3 all custom 1000 traj_npt_new.lammpstrj id type x y z
run 50000
Last active /omp style is pair_style eam/alloy/omp
Loop time of 182.065 on 8 procs for 50000 steps with 1372 atoms

unfix out_file_1
unfix 1
# # clear
# write_data after_cooling_$T.in
# write_restart after_cooling_$T.lmp
next loopVar
# # thermo_modify flush yes
jump in.lmp ensemble
# jump ensemble

# write_data after_cooling_.in
# write_restart after_cooling_.lmp
