LAMMPS (29 Oct 2020)
package omp 0
using multi-threaded neighbor list subroutines
package omp 2
set 2 OpenMP thread(s) per MPI task
using multi-threaded neighbor list subroutines
units metal
dimension 3
boundary p p p

lattice fcc 3.5440
Lattice spacing in x,y,z = 3.5440000 3.5440000 3.5440000
region box block 0 8 0 8 0 8 units lattice
create_box 1 box
Created orthogonal box = (0.0000000 0.0000000 0.0000000) to (28.352000 28.352000 28.352000)
create_atoms 1 box
Created 2048 atoms

# read_restart after_heating_press_0_1600.lmp

variable P equal 0
variable dt equal 0.001
variable loopVar loop 6
variable sys_press equal "press/10000"
#variable temp_word equal "heating"

# print "step temp vol pe" file heating.txt screen no

pair_style eam/alloy
pair_coeff * * Co_Zhou04.eam.alloy Co
Reading eam/alloy potential file Co_Zhou04.eam.alloy with DATE: 2018-03-30

neighbor 2 bin
neigh_modify every 10 check yes

thermo 1000
thermo_style custom step temp vol press ke pe density

timestep $(dt)
timestep 0.0010000000000000000208

# fix 2 all npt temp 300 300 $(dt*100) iso 0 0 $(dt*1000)
# run 30000
# unfix 2

# dump_modify 1 append yes
# dump 3 all custom 10000 traj_npt_new.lammpstrj id type x y z

velocity all create 1900 123123

print """
yo aagadi
"""

yo aagadi

label ensemble

print """
Label pachadi solti, hos garam.
"""

Label pachadi solti, hos garam.

variable T equal 1800+1*100
#variable T equal 1250
# velocity all create 1200 123123
reset_timestep 0
fix 1 all npt temp $T $T $(dt*100) iso $P $P $(dt*1000)
fix 1 all npt temp 1900 $T $(dt*100) iso $P $P $(dt*1000)
fix 1 all npt temp 1900 1900 $(dt*100) iso $P $P $(dt*1000)
fix 1 all npt temp 1900 1900 0.10000000000000000555 iso $P $P $(dt*1000)
fix 1 all npt temp 1900 1900 0.10000000000000000555 iso 0 $P $(dt*1000)
fix 1 all npt temp 1900 1900 0.10000000000000000555 iso 0 0 $(dt*1000)
fix 1 all npt temp 1900 1900 0.10000000000000000555 iso 0 0 1
print """
<--------------------------------------------------------------------->
<------------------ Equilibrating at temperature $T ----------------->
<--------------------------------------------------------------------->
"""

<--------------------------------------------------------------------->
<------------------ Equilibrating at temperature 1900 ----------------->
<--------------------------------------------------------------------->

run 250000
Last active /omp style is pair_style eam/alloy/omp
  update every 10 steps, delay 10 steps, check yes
Step Temp Volume Press KinEng PotEng Density
0         1900    22790.356    31241.769    502.73148    -9015.757        8.794
Averages over the last 126 of 251 rows, steps 125000 to 250000:
Temp Volume Press KinEng PotEng Density
1900.4 24956.9 -217.344 502.838 -8416.48 8.03064
Loop time of 471.391 on 8 procs for 250000 steps with 2048 atoms

# fix 132 all momentum 100 linear 1 1 1 angular

# dump 3 all custom 1000 traj_npt_new.lammpstrj id type x y z
run 50000
Last active /omp style is pair_style eam/alloy/omp
Step Temp Volume Press KinEng PotEng Density
250000    1865.8157    25020.568   -2143.4114    493.68647   -8401.9504    8.0101455
Averages over the last 26 of 51 rows, steps 275000 to 300000:
Temp Volume Press KinEng PotEng Density
1899.74 24955.8 -357.292 502.662 -8417.73 8.03101
Loop time of 93.863 on 8 procs for 50000 steps with 2048 atoms

unfix temp
unfix out_file_1

write_data after_heating_press_$P_$T.in
write_data after_heating_press_0_$T.in
write_data after_heating_press_0_1900.in
System init for write_data ...
Last active /omp style is pair_style eam/alloy/omp
write_restart after_heating_press_$P_$T.lmp
write_restart after_heating_press_0_$T.lmp
write_restart after_heating_press_0_1900.lmp
System init for write_restart ...
Last active /omp style is pair_style eam/alloy/omp
next loopVar
jump in.lmp ensemble

print """
Label pachadi solti, hos garam.
"""

Label pachadi solti, hos garam.

variable T equal 1800+2*100
#variable T equal 1250
# velocity all create 1200 123123
reset_timestep 0
fix 1 all npt temp $T $T $(dt*100) iso $P $P $(dt*1000)
fix 1 all npt temp 2000 $T $(dt*100) iso $P $P $(dt*1000)
fix 1 all npt temp 2000 2000 $(dt*100) iso $P $P $(dt*1000)
fix 1 all npt temp 2000 2000 0.10000000000000000555 iso $P $P $(dt*1000)
fix 1 all npt temp 2000 2000 0.10000000000000000555 iso 0 $P $(dt*1000)
fix 1 all npt temp 2000 2000 0.10000000000000000555 iso 0 0 $(dt*1000)
fix 1 all npt temp 2000 2000 0.10000000000000000555 iso 0 0 1
print """
<--------------------------------------------------------------------->
<------------------ Equilibrating at temperature $T ----------------->
<--------------------------------------------------------------------->
"""

<--------------------------------------------------------------------->
<------------------ Equilibrating at temperature 2000 ----------------->
<--------------------------------------------------------------------->

run 250000
Last active /omp style is pair_style eam/alloy/omp
Step Temp Volume Press KinEng PotEng Density
0    1920.1066    24996.844   -1192.3157    508.05159   -8411.2719    8.0177477
Averages over the last 126 of 251 rows, steps 125000 to 250000:
Temp Volume Press KinEng PotEng Density
2000.96 25117.4 -185.679 529.445 -8370.76 7.97933
Loop time of 490.592 on 8 procs for 250000 steps with 2048 atoms

# fix 132 all momentum 100 linear 1 1 1 angular

# dump 3 all custom 1000 traj_npt_new.lammpstrj id type x y z
run 50000
Last active /omp style is pair_style eam/alloy/omp
Step Temp Volume Press KinEng PotEng Density
250000    1970.7539     24847.19    14071.767    521.45265   -8384.3871    8.0660384
Averages over the last 26 of 51 rows, steps 275000 to 300000:
Temp Volume Press KinEng PotEng Density
1995.84 25112.3 -364.653 528.09 -8372.9 7.98093
Loop time of 101.56 on 8 procs for 50000 steps with 2048 atoms

unfix temp
unfix out_file_1

write_data after_heating_press_$P_$T.in
write_data after_heating_press_0_$T.in
write_data after_heating_press_0_2000.in
System init for write_data ...
Last active /omp style is pair_style eam/alloy/omp
write_restart after_heating_press_$P_$T.lmp
write_restart after_heating_press_0_$T.lmp
write_restart after_heating_press_0_2000.lmp
System init for write_restart ...
Last active /omp style is pair_style eam/alloy/omp
next loopVar
jump in.lmp ensemble

print """
Label pachadi solti, hos garam.
"""

Label pachadi solti, hos garam.

variable T equal 1800+3*100
#variable T equal 1250
# velocity all create 1200 123123
reset_timestep 0
fix 1 all npt temp $T $T $(dt*100) iso $P $P $(dt*1000)
fix 1 all npt temp 2100 $T $(dt*100) iso $P $P $(dt*1000)
fix 1 all npt temp 2100 2100 $(dt*100) iso $P $P $(dt*1000)
fix 1 all npt temp 2100 2100 0.10000000000000000555 iso $P $P $(dt*1000)
fix 1 all npt temp 2100 2100 0.10000000000000000555 iso 0 $P $(dt*1000)
fix 1 all npt temp 2100 2100 0.10000000000000000555 iso 0 0 $(dt*1000)
fix 1 all npt temp 2100 2100 0.10000000000000000555 iso 0 0 1
print """
<--------------------------------------------------------------------->
<------------------ Equilibrating at temperature $T ----------------->
<--------------------------------------------------------------------->
"""

<--------------------------------------------------------------------->
<------------------ Equilibrating at temperature 2100 ----------------->
<--------------------------------------------------------------------->

run 250000
Last active /omp style is pair_style eam/alloy/omp
Step Temp Volume Press KinEng PotEng Density
0    1978.5426    25223.481   -4223.9767     523.5135   -8355.6319     7.945707
Averages over the last 126 of 251 rows, steps 125000 to 250000:
Temp Volume Press KinEng PotEng Density
2102.59 25310.1 -157.478 556.336 -8316.68 7.91863
Loop time of 493.959 on 8 procs for 250000 steps with 2048 atoms

# fix 132 all momentum 100 linear 1 1 1 angular

# dump 3 all custom 1000 traj_npt_new.lammpstrj id type x y z
run 50000
Last active /omp style is pair_style eam/alloy/omp
Step Temp Volume Press KinEng PotEng Density
250000    2080.1761    25382.018   -2628.1154    550.40528   -8308.9381    7.8960777
Averages over the last 26 of 51 rows, steps 275000 to 300000:
Temp Volume Press KinEng PotEng Density
2107.21 25319 -569.017 557.558 -8315.57 7.91581
Loop time of 100.369 on 8 procs for 50000 steps with 2048 atoms

unfix temp
unfix out_file_1

write_data after_heating_press_$P_$T.in
write_data after_heating_press_0_$T.in
write_data after_heating_press_0_2100.in
System init for write_data ...
Last active /omp style is pair_style eam/alloy/omp
write_restart after_heating_press_$P_$T.lmp
write_restart after_heating_press_0_$T.lmp
write_restart after_heating_press_0_2100.lmp
System init for write_restart ...
Last active /omp style is pair_style eam/alloy/omp
next loopVar
jump in.lmp ensemble

print """
Label pachadi solti, hos garam.
"""

Label pachadi solti, hos garam.

variable T equal 1800+4*100
#variable T equal 1250
# velocity all create 1200 123123
reset_timestep 0
fix 1 all npt temp $T $T $(dt*100) iso $P $P $(dt*1000)
fix 1 all npt temp 2200 $T $(dt*100) iso $P $P $(dt*1000)
fix 1 all npt temp 2200 2200 $(dt*100) iso $P $P $(dt*1000)
fix 1 all npt temp 2200 2200 0.10000000000000000555 iso $P $P $(dt*1000)
fix 1 all npt temp 2200 2200 0.10000000000000000555 iso 0 $P $(dt*1000)
fix 1 all npt temp 2200 2200 0.10000000000000000555 iso 0 0 $(dt*1000)
fix 1 all npt temp 2200 2200 0.10000000000000000555 iso 0 0 1
print """
<--------------------------------------------------------------------->
<------------------ Equilibrating at temperature $T ----------------->
<--------------------------------------------------------------------->
"""

<--------------------------------------------------------------------->
<------------------ Equilibrating at temperature 2200 ----------------->
<--------------------------------------------------------------------->

run 250000
Last active /omp style is pair_style eam/alloy/omp
Step Temp Volume Press KinEng PotEng Density
0    2186.5449    25190.214     6250.044    578.54997   -8324.5924    7.9562002
Averages over the last 126 of 251 rows, steps 125000 to 250000:
Temp Volume Press KinEng PotEng Density
2203.1 26591.9 324.383 582.929 -7970.5 7.53691
Loop time of 483.604 on 8 procs for 250000 steps with 2048 atoms

# fix 132 all momentum 100 linear 1 1 1 angular

# dump 3 all custom 1000 traj_npt_new.lammpstrj id type x y z
run 50000
Last active /omp style is pair_style eam/alloy/omp
Step Temp Volume Press KinEng PotEng Density
250000    2200.3324     26374.74    8007.1144    582.19809   -7991.0736    7.5988762
Averages over the last 26 of 51 rows, steps 275000 to 300000:
Temp Volume Press KinEng PotEng Density
2203.14 26599.3 -32.0554 582.94 -7970.15 7.53477
Loop time of 97.7522 on 8 procs for 50000 steps with 2048 atoms

unfix temp
unfix out_file_1

write_data after_heating_press_$P_$T.in
write_data after_heating_press_0_$T.in
write_data after_heating_press_0_2200.in
System init for write_data ...
Last active /omp style is pair_style eam/alloy/omp
write_restart after_heating_press_$P_$T.lmp
write_restart after_heating_press_0_$T.lmp
write_restart after_heating_press_0_2200.lmp
System init for write_restart ...
Last active /omp style is pair_style eam/alloy/omp
next loopVar
jump in.lmp ensemble

print """
Label pachadi solti, hos garam.
"""

Label pachadi solti, hos garam.

variable T equal 1800+5*100
#variable T equal 1250
# velocity all create 1200 123123
reset_timestep 0
fix 1 all npt temp $T $T $(dt*100) iso $P $P $(dt*1000)
fix 1 all npt temp 2300 $T $(dt*100) iso $P $P $(dt*1000)
fix 1 all npt temp 2300 2300 $(dt*100) iso $P $P $(dt*1000)
fix 1 all npt temp 2300 2300 0.10000000000000000555 iso $P $P $(dt*1000)
fix 1 all npt temp 2300 2300 0.10000000000000000555 iso 0 $P $(dt*1000)
fix 1 all npt temp 2300 2300 0.10000000000000000555 iso 0 0 $(dt*1000)
fix 1 all npt temp 2300 2300 0.10000000000000000555 iso 0 0 1
print """
<--------------------------------------------------------------------->
<------------------ Equilibrating at temperature $T ----------------->
<--------------------------------------------------------------------->
"""

<--------------------------------------------------------------------->
<------------------ Equilibrating at temperature 2300 ----------------->
<--------------------------------------------------------------------->

run 250000
Last active /omp style is pair_style eam/alloy/omp
Step Temp Volume Press KinEng PotEng Density
0    2218.1224      26624.5    1830.3171    586.90523   -7954.6793    7.5275925
Averages over the last 126 of 251 rows, steps 125000 to 250000:
Temp Volume Press KinEng PotEng Density
2308.97 26768.5 -193.214 610.944 -7932.77 7.48719
Loop time of 474.671 on 8 procs for 250000 steps with 2048 atoms

# fix 132 all momentum 100 linear 1 1 1 angular

# dump 3 all custom 1000 traj_npt_new.lammpstrj id type x y z
run 50000
Last active /omp style is pair_style eam/alloy/omp
Step Temp Volume Press KinEng PotEng Density
250000    2290.7231    26736.189   -1650.3818    606.11506   -7950.1263    7.4961463
Averages over the last 26 of 51 rows, steps 275000 to 300000:
Temp Volume Press KinEng PotEng Density
2310.62 26730.5 950.494 611.379 -7936.37 7.49784
Loop time of 97.918 on 8 procs for 50000 steps with 2048 atoms

unfix temp
unfix out_file_1

write_data after_heating_press_$P_$T.in
write_data after_heating_press_0_$T.in
write_data after_heating_press_0_2300.in
System init for write_data ...
Last active /omp style is pair_style eam/alloy/omp
write_restart after_heating_press_$P_$T.lmp
write_restart after_heating_press_0_$T.lmp
write_restart after_heating_press_0_2300.lmp
System init for write_restart ...
Last active /omp style is pair_style eam/alloy/omp
next loopVar
jump in.lmp ensemble

print """
Label pachadi solti, hos garam.
"""

Label pachadi solti, hos garam.

variable T equal 1800+6*100
#variable T equal 1250
# velocity all create 1200 123123
reset_timestep 0
fix 1 all npt temp $T $T $(dt*100) iso $P $P $(dt*1000)
fix 1 all npt temp 2400 $T $(dt*100) iso $P $P $(dt*1000)
fix 1 all npt temp 2400 2400 $(dt*100) iso $P $P $(dt*1000)
fix 1 all npt temp 2400 2400 0.10000000000000000555 iso $P $P $(dt*1000)
fix 1 all npt temp 2400 2400 0.10000000000000000555 iso 0 $P $(dt*1000)
fix 1 all npt temp 2400 2400 0.10000000000000000555 iso 0 0 $(dt*1000)
fix 1 all npt temp 2400 2400 0.10000000000000000555 iso 0 0 1
print """
<--------------------------------------------------------------------->
<------------------ Equilibrating at temperature $T ----------------->
<--------------------------------------------------------------------->
"""

<--------------------------------------------------------------------->
<------------------ Equilibrating at temperature 2400 ----------------->
<--------------------------------------------------------------------->

run 250000
Last active /omp style is pair_style eam/alloy/omp
Step Temp Volume Press KinEng PotEng Density
0    2283.0115    26619.651    6122.5487    604.07462   -7937.1066    7.5289636
Averages over the last 126 of 251 rows, steps 125000 to 250000:
Temp Volume Press KinEng PotEng Density
2399.24 26963.2 -483.556 634.829 -7889.34 7.43315
Loop time of 473.259 on 8 procs for 250000 steps with 2048 atoms

# fix 132 all momentum 100 linear 1 1 1 angular

# dump 3 all custom 1000 traj_npt_new.lammpstrj id type x y z
run 50000
Last active /omp style is pair_style eam/alloy/omp
Step Temp Volume Press KinEng PotEng Density
250000    2450.6803    27013.049   -2451.9251    648.43903   -7888.9218    7.4193174
Averages over the last 26 of 51 rows, steps 275000 to 300000:
Temp Volume Press KinEng PotEng Density
2405.3 26945.9 423.356 636.431 -7889.99 7.4379
Loop time of 95.7646 on 8 procs for 50000 steps with 2048 atoms

unfix temp
unfix out_file_1

write_data after_heating_press_$P_$T.in
write_data after_heating_press_0_$T.in
write_data after_heating_press_0_2400.in
System init for write_data ...
Last active /omp style is pair_style eam/alloy/omp
write_restart after_heating_press_$P_$T.lmp
write_restart after_heating_press_0_$T.lmp
write_restart after_heating_press_0_2400.lmp
System init for write_restart ...
Last active /omp style is pair_style eam/alloy/omp
next loopVar
jump in.lmp ensemble
