LAMMPS (19 Mar 2020)
package omp 0
using multi-threaded neighbor list subroutines
package omp 4
set 4 OpenMP thread(s) per MPI task
using multi-threaded neighbor list subroutines

units metal
boundary p p p
atom_style atomic

lattice bcc 2.887902
Lattice spacing in x,y,z = 2.8879 2.8879 2.8879
read_data in.data
  orthogonal box = (0 0 0) to (2.8879 2.8879 2.8879)
  reading atoms ...
  2 atoms

replicate 8 8 16
  orthogonal box = (0 0 0) to (23.1032 23.1032 46.2064)
  2048 atoms
  replicate CPU = 0.0008202 secs

# lattice bcc 2.887902
# region box block  3 0 3 0 8 units lattice
region left_cold block INF INF INF INF 0 23 units box
region right_hot block INF INF INF INF 23 INF units box
# region middle_cold block INF INF INF INF 3 9 units lattice

#  2 6 units lattice
# region hot union 2 left_hot right_hot
group cold_atoms region left_cold
1024 atoms in group cold_atoms
group hot_atoms region right_hot
1024 atoms in group hot_atoms

variable dt equal 0.001
variable T equal 700
variable sys_press equal "press/10000"

pair_style eam/alloy
pair_coeff * * Mishin-Ni-Al-2009.eam.alloy Ni Al
write_data temp.data
Last active /omp style is pair_style eam/alloy/omp
  update every 1 steps, delay 10 steps, check yes
velocity all create 300 546445435 mom yes rot yes dist gaussian

neighbor 2 bin

neigh_modify every 10 check yes

fix 1 all npt temp 300 $T $(dt*100) iso 0 0 $(dt*1000)
fix 1 all npt temp 300 700 $(dt*100) iso 0 0 $(dt*1000)
fix 1 all npt temp 300 700 0.10000000000000000555 iso 0 0 $(dt*1000)
fix 1 all npt temp 300 700 0.10000000000000000555 iso 0 0 1

thermo 1000
thermo_style custom step temp vol press ke pe density v_sys_press

dump 3 all custom 1000 traj_npt_new.lammpstrj id type x y z
# dump_modify 3 element Ni Al

run 500000
Last active /omp style is pair_style eam/alloy/omp
Step Temp Volume Press KinEng PotEng Density v_sys_press
0          300     24663.08   -79185.625    79.378655    -9200.357    5.9080204   -7.9185625
Averages over the last 251 of 501 rows, steps 250000 to 500000:
Temp Volume Press KinEng PotEng Density v_sys_press
600.475 23856 -68.3457 158.883 -9072.27 6.10795 -0.00683457
Loop time of 4180.4 on 8 procs for 500000 steps with 2048 atoms

write_data after_two_phase_equil_$T.in
write_data after_two_phase_equil_700.in
Last active /omp style is pair_style eam/alloy/omp
write_restart after_two_phase_equil_$T.lmp
write_restart after_two_phase_equil_700.lmp
Last active /omp style is pair_style eam/alloy/omp
compute z_chunk all chunk/atom bin/1d z lower 0.7 units box
fix 14 all ave/chunk 500000 1 500000 z_chunk density/number file num_density_700.txt

run 0
Last active /omp style is pair_style eam/alloy/omp
Step Temp Volume Press KinEng PotEng Density v_sys_press
500000    704.88974    23921.326    2120.8198    186.51066   -9042.3182    6.0912166   0.21208198
Loop time of 5.45e-06 on 8 procs for 0 steps with 2048 atoms
