LAMMPS (29 Oct 2020)
package omp 0
using multi-threaded neighbor list subroutines
package omp 2
set 2 OpenMP thread(s) per MPI task
using multi-threaded neighbor list subroutines
# units metal
# dimension 3
# boundary p p p

# lattice fcc 3.5440
# region box block 0 8 0 8 0 8 units lattice
# create_box 1 box
# create_atoms 1 box

read_restart after_heating_press_200000_2800.lmp
Reading restart file ...
  restart file = 29 Oct 2020, LAMMPS = 29 Oct 2020
  restoring atom style atomic from restart
  orthogonal box = (-0.0071179295 -0.0071179295 -0.0071179295) to (28.359118 28.359118 28.359118)
  pair style eam/alloy/omp stores no restart info
  2048 atoms
  read_restart CPU = 0.007 seconds
# read_restart after_cooling_press_200000_2800.lmp

variable P equal 200000
variable dt equal 0.001
variable loopVar loop 6
variable sys_press equal "press/10000"

variable sim string "heating"
# variable sim string "cooling"

pair_style eam/alloy
pair_coeff * * Co_Zhou04.eam.alloy Co
Reading eam/alloy potential file Co_Zhou04.eam.alloy with DATE: 2018-03-30

neighbor 2 bin
neigh_modify every 10 check yes

thermo 1000
thermo_style custom step temp vol press ke pe density

timestep $(dt)
timestep 0.0010000000000000000208

# velocity all create 2600 123123

print """
yo aagadi
"""

yo aagadi

label ensemble

print """
Label pachadi solti, hos garam.
"""

Label pachadi solti, hos garam.

variable T equal 2100-1*100
# variable T equal 2850

reset_timestep 0
fix 1 all npt temp $T $T $(dt*100) iso $P $P $(dt*1000)
fix 1 all npt temp 2000 $T $(dt*100) iso $P $P $(dt*1000)
fix 1 all npt temp 2000 2000 $(dt*100) iso $P $P $(dt*1000)
fix 1 all npt temp 2000 2000 0.10000000000000000555 iso $P $P $(dt*1000)
fix 1 all npt temp 2000 2000 0.10000000000000000555 iso 200000 $P $(dt*1000)
fix 1 all npt temp 2000 2000 0.10000000000000000555 iso 200000 200000 $(dt*1000)
fix 1 all npt temp 2000 2000 0.10000000000000000555 iso 200000 200000 1
  fix style: npt/omp, fix ID: 1
print """
<--------------------------------------------------------------------->
<------------------ Equilibrating at temperature $T ----------------->
<--------------------------------------------------------------------->
"""

<--------------------------------------------------------------------->
<------------------ Equilibrating at temperature 2000 ----------------->
<--------------------------------------------------------------------->

run 250000
All restart file global fix info was re-assigned
Last active /omp style is pair_style eam/alloy/omp
  update every 10 steps, delay 10 steps, check yes
Step Temp Volume Press KinEng PotEng Density
0    2786.4582    22824.703     196828.5    737.28434    -8240.779    8.7807666
Averages over the last 126 of 251 rows, steps 125000 to 250000:
Temp Volume Press KinEng PotEng Density
2003.98 22130.8 199935 530.245 -8468.31 9.05615
Loop time of 495.902 on 8 procs for 250000 steps with 2048 atoms

# fix 132 all momentum 100 linear 1 1 1 angular

# dump 3 all custom 1000 traj_npt_new.lammpstrj id type x y z
run 50000
Last active /omp style is pair_style eam/alloy/omp
Step Temp Volume Press KinEng PotEng Density
250000    2081.7773    22150.191    199802.61    550.82893   -8464.8242    9.0481562
Averages over the last 26 of 51 rows, steps 275000 to 300000:
Temp Volume Press KinEng PotEng Density
1993.93 22127.8 200157 527.585 -8468.23 9.05739
Loop time of 102.105 on 8 procs for 50000 steps with 2048 atoms

unfix temp
unfix out_file_1

write_data after_heating_press_$P_$T.in
write_data after_heating_press_200000_$T.in
write_data after_heating_press_200000_2000.in
System init for write_data ...
Last active /omp style is pair_style eam/alloy/omp
write_restart after_heating_press_$P_$T.lmp
write_restart after_heating_press_200000_$T.lmp
write_restart after_heating_press_200000_2000.lmp
System init for write_restart ...
Last active /omp style is pair_style eam/alloy/omp

next loopVar
jump in.lmp ensemble

print """
Label pachadi solti, hos garam.
"""

Label pachadi solti, hos garam.

variable T equal 2100-2*100
# variable T equal 2850

reset_timestep 0
fix 1 all npt temp $T $T $(dt*100) iso $P $P $(dt*1000)
fix 1 all npt temp 1900 $T $(dt*100) iso $P $P $(dt*1000)
fix 1 all npt temp 1900 1900 $(dt*100) iso $P $P $(dt*1000)
fix 1 all npt temp 1900 1900 0.10000000000000000555 iso $P $P $(dt*1000)
fix 1 all npt temp 1900 1900 0.10000000000000000555 iso 200000 $P $(dt*1000)
fix 1 all npt temp 1900 1900 0.10000000000000000555 iso 200000 200000 $(dt*1000)
fix 1 all npt temp 1900 1900 0.10000000000000000555 iso 200000 200000 1
print """
<--------------------------------------------------------------------->
<------------------ Equilibrating at temperature $T ----------------->
<--------------------------------------------------------------------->
"""

<--------------------------------------------------------------------->
<------------------ Equilibrating at temperature 1900 ----------------->
<--------------------------------------------------------------------->

run 250000
Last active /omp style is pair_style eam/alloy/omp
Step Temp Volume Press KinEng PotEng Density
0     2059.926    22140.782    199409.25    545.04718   -8468.9627    9.0520014
Averages over the last 126 of 251 rows, steps 125000 to 250000:
Temp Volume Press KinEng PotEng Density
1898.21 22060.1 200125 502.259 -8491.51 9.08517
Loop time of 517.29 on 8 procs for 250000 steps with 2048 atoms

# fix 132 all momentum 100 linear 1 1 1 angular

# dump 3 all custom 1000 traj_npt_new.lammpstrj id type x y z
run 50000
Last active /omp style is pair_style eam/alloy/omp
Step Temp Volume Press KinEng PotEng Density
250000    1892.5088    22078.849    198175.75    500.74933   -8490.6472     9.077393
Averages over the last 26 of 51 rows, steps 275000 to 300000:
Temp Volume Press KinEng PotEng Density
1904.83 22056.6 200399 504.009 -8491.86 9.08663
Loop time of 104.046 on 8 procs for 50000 steps with 2048 atoms

unfix temp
unfix out_file_1

write_data after_heating_press_$P_$T.in
write_data after_heating_press_200000_$T.in
write_data after_heating_press_200000_1900.in
System init for write_data ...
Last active /omp style is pair_style eam/alloy/omp
write_restart after_heating_press_$P_$T.lmp
write_restart after_heating_press_200000_$T.lmp
write_restart after_heating_press_200000_1900.lmp
System init for write_restart ...
Last active /omp style is pair_style eam/alloy/omp

next loopVar
jump in.lmp ensemble

print """
Label pachadi solti, hos garam.
"""

Label pachadi solti, hos garam.

variable T equal 2100-3*100
# variable T equal 2850

reset_timestep 0
fix 1 all npt temp $T $T $(dt*100) iso $P $P $(dt*1000)
fix 1 all npt temp 1800 $T $(dt*100) iso $P $P $(dt*1000)
fix 1 all npt temp 1800 1800 $(dt*100) iso $P $P $(dt*1000)
fix 1 all npt temp 1800 1800 0.10000000000000000555 iso $P $P $(dt*1000)
fix 1 all npt temp 1800 1800 0.10000000000000000555 iso 200000 $P $(dt*1000)
fix 1 all npt temp 1800 1800 0.10000000000000000555 iso 200000 200000 $(dt*1000)
fix 1 all npt temp 1800 1800 0.10000000000000000555 iso 200000 200000 1
print """
<--------------------------------------------------------------------->
<------------------ Equilibrating at temperature $T ----------------->
<--------------------------------------------------------------------->
"""

<--------------------------------------------------------------------->
<------------------ Equilibrating at temperature 1800 ----------------->
<--------------------------------------------------------------------->

run 250000
Last active /omp style is pair_style eam/alloy/omp
Step Temp Volume Press KinEng PotEng Density
0     1864.097    22129.492    191915.73    493.23172   -8500.0352    9.0566194
Averages over the last 126 of 251 rows, steps 125000 to 250000:
Temp Volume Press KinEng PotEng Density
1799.77 21985.8 200454 476.212 -8516.03 9.11586
Loop time of 521.599 on 8 procs for 250000 steps with 2048 atoms

# fix 132 all momentum 100 linear 1 1 1 angular

# dump 3 all custom 1000 traj_npt_new.lammpstrj id type x y z
run 50000
Last active /omp style is pair_style eam/alloy/omp
Step Temp Volume Press KinEng PotEng Density
250000    1824.7236    21977.042    201435.44    482.81369    -8516.058    9.1194431
Averages over the last 26 of 51 rows, steps 275000 to 300000:
Temp Volume Press KinEng PotEng Density
1804.52 21989.2 200396 477.467 -8515.6 9.11443
Loop time of 104.634 on 8 procs for 50000 steps with 2048 atoms

unfix temp
unfix out_file_1

write_data after_heating_press_$P_$T.in
write_data after_heating_press_200000_$T.in
write_data after_heating_press_200000_1800.in
System init for write_data ...
Last active /omp style is pair_style eam/alloy/omp
write_restart after_heating_press_$P_$T.lmp
write_restart after_heating_press_200000_$T.lmp
write_restart after_heating_press_200000_1800.lmp
System init for write_restart ...
Last active /omp style is pair_style eam/alloy/omp

next loopVar
jump in.lmp ensemble

print """
Label pachadi solti, hos garam.
"""

Label pachadi solti, hos garam.

variable T equal 2100-4*100
# variable T equal 2850

reset_timestep 0
fix 1 all npt temp $T $T $(dt*100) iso $P $P $(dt*1000)
fix 1 all npt temp 1700 $T $(dt*100) iso $P $P $(dt*1000)
fix 1 all npt temp 1700 1700 $(dt*100) iso $P $P $(dt*1000)
fix 1 all npt temp 1700 1700 0.10000000000000000555 iso $P $P $(dt*1000)
fix 1 all npt temp 1700 1700 0.10000000000000000555 iso 200000 $P $(dt*1000)
fix 1 all npt temp 1700 1700 0.10000000000000000555 iso 200000 200000 $(dt*1000)
fix 1 all npt temp 1700 1700 0.10000000000000000555 iso 200000 200000 1
print """
<--------------------------------------------------------------------->
<------------------ Equilibrating at temperature $T ----------------->
<--------------------------------------------------------------------->
"""

<--------------------------------------------------------------------->
<------------------ Equilibrating at temperature 1700 ----------------->
<--------------------------------------------------------------------->

run 250000
Last active /omp style is pair_style eam/alloy/omp
Step Temp Volume Press KinEng PotEng Density
0    1812.0421    21960.806    202876.04    479.45822    -8516.586    9.1261852
Averages over the last 126 of 251 rows, steps 125000 to 250000:
Temp Volume Press KinEng PotEng Density
1696.12 21920.6 200310 448.785 -8538.95 9.14296
Loop time of 527.688 on 8 procs for 250000 steps with 2048 atoms

# fix 132 all momentum 100 linear 1 1 1 angular

# dump 3 all custom 1000 traj_npt_new.lammpstrj id type x y z
run 50000
Last active /omp style is pair_style eam/alloy/omp
Step Temp Volume Press KinEng PotEng Density
250000    1689.9312     21950.28    198444.39    447.14821   -8534.3105    9.1305618
Averages over the last 26 of 51 rows, steps 275000 to 300000:
Temp Volume Press KinEng PotEng Density
1701.88 21921.9 199859 450.309 -8540.71 9.14243
Loop time of 105.974 on 8 procs for 50000 steps with 2048 atoms

unfix temp
unfix out_file_1

write_data after_heating_press_$P_$T.in
write_data after_heating_press_200000_$T.in
write_data after_heating_press_200000_1700.in
System init for write_data ...
Last active /omp style is pair_style eam/alloy/omp
write_restart after_heating_press_$P_$T.lmp
write_restart after_heating_press_200000_$T.lmp
write_restart after_heating_press_200000_1700.lmp
System init for write_restart ...
Last active /omp style is pair_style eam/alloy/omp

next loopVar
jump in.lmp ensemble

print """
Label pachadi solti, hos garam.
"""

Label pachadi solti, hos garam.

variable T equal 2100-5*100
# variable T equal 2850

reset_timestep 0
fix 1 all npt temp $T $T $(dt*100) iso $P $P $(dt*1000)
fix 1 all npt temp 1600 $T $(dt*100) iso $P $P $(dt*1000)
fix 1 all npt temp 1600 1600 $(dt*100) iso $P $P $(dt*1000)
fix 1 all npt temp 1600 1600 0.10000000000000000555 iso $P $P $(dt*1000)
fix 1 all npt temp 1600 1600 0.10000000000000000555 iso 200000 $P $(dt*1000)
fix 1 all npt temp 1600 1600 0.10000000000000000555 iso 200000 200000 $(dt*1000)
fix 1 all npt temp 1600 1600 0.10000000000000000555 iso 200000 200000 1
print """
<--------------------------------------------------------------------->
<------------------ Equilibrating at temperature $T ----------------->
<--------------------------------------------------------------------->
"""

<--------------------------------------------------------------------->
<------------------ Equilibrating at temperature 1600 ----------------->
<--------------------------------------------------------------------->

run 250000
Last active /omp style is pair_style eam/alloy/omp
Step Temp Volume Press KinEng PotEng Density
0    1690.3788    21850.284    205929.75    447.26665   -8540.7848     9.172347
Averages over the last 126 of 251 rows, steps 125000 to 250000:
Temp Volume Press KinEng PotEng Density
1598.41 21866.8 198741 422.931 -8563.98 9.16543
Loop time of 531.413 on 8 procs for 250000 steps with 2048 atoms

# fix 132 all momentum 100 linear 1 1 1 angular

# dump 3 all custom 1000 traj_npt_new.lammpstrj id type x y z
run 50000
Last active /omp style is pair_style eam/alloy/omp
Step Temp Volume Press KinEng PotEng Density
250000    1564.2124    21809.903     204179.8    413.88358   -8559.6562    9.1893296
Averages over the last 26 of 51 rows, steps 275000 to 300000:
Temp Volume Press KinEng PotEng Density
1599.36 21865.6 198000 423.183 -8568.2 9.16596
Loop time of 106.551 on 8 procs for 50000 steps with 2048 atoms

unfix temp
unfix out_file_1

write_data after_heating_press_$P_$T.in
write_data after_heating_press_200000_$T.in
write_data after_heating_press_200000_1600.in
System init for write_data ...
Last active /omp style is pair_style eam/alloy/omp
write_restart after_heating_press_$P_$T.lmp
write_restart after_heating_press_200000_$T.lmp
write_restart after_heating_press_200000_1600.lmp
System init for write_restart ...
Last active /omp style is pair_style eam/alloy/omp

next loopVar
jump in.lmp ensemble

print """
Label pachadi solti, hos garam.
"""

Label pachadi solti, hos garam.

variable T equal 2100-6*100
# variable T equal 2850

reset_timestep 0
fix 1 all npt temp $T $T $(dt*100) iso $P $P $(dt*1000)
fix 1 all npt temp 1500 $T $(dt*100) iso $P $P $(dt*1000)
fix 1 all npt temp 1500 1500 $(dt*100) iso $P $P $(dt*1000)
fix 1 all npt temp 1500 1500 0.10000000000000000555 iso $P $P $(dt*1000)
fix 1 all npt temp 1500 1500 0.10000000000000000555 iso 200000 $P $(dt*1000)
fix 1 all npt temp 1500 1500 0.10000000000000000555 iso 200000 200000 $(dt*1000)
fix 1 all npt temp 1500 1500 0.10000000000000000555 iso 200000 200000 1
print """
<--------------------------------------------------------------------->
<------------------ Equilibrating at temperature $T ----------------->
<--------------------------------------------------------------------->
"""

<--------------------------------------------------------------------->
<------------------ Equilibrating at temperature 1500 ----------------->
<--------------------------------------------------------------------->

run 250000
Last active /omp style is pair_style eam/alloy/omp
Step Temp Volume Press KinEng PotEng Density
0    1587.3133    21883.534    196884.16    419.99598   -8565.3622    9.1584102
Averages over the last 126 of 251 rows, steps 125000 to 250000:
Temp Volume Press KinEng PotEng Density
1500.91 21787.6 200102 397.135 -8585.76 9.19877
Loop time of 541.222 on 8 procs for 250000 steps with 2048 atoms

# fix 132 all momentum 100 linear 1 1 1 angular

# dump 3 all custom 1000 traj_npt_new.lammpstrj id type x y z
run 50000
Last active /omp style is pair_style eam/alloy/omp
Step Temp Volume Press KinEng PotEng Density
250000    1488.0669    21751.331    202437.22    393.73584    -8587.249    9.2140746
Averages over the last 26 of 51 rows, steps 275000 to 300000:
Temp Volume Press KinEng PotEng Density
1497.44 21791.1 199508 396.215 -8586.88 9.1973
Loop time of 107.145 on 8 procs for 50000 steps with 2048 atoms

unfix temp
unfix out_file_1

write_data after_heating_press_$P_$T.in
write_data after_heating_press_200000_$T.in
write_data after_heating_press_200000_1500.in
System init for write_data ...
Last active /omp style is pair_style eam/alloy/omp
write_restart after_heating_press_$P_$T.lmp
write_restart after_heating_press_200000_$T.lmp
write_restart after_heating_press_200000_1500.lmp
System init for write_restart ...
Last active /omp style is pair_style eam/alloy/omp

next loopVar
jump in.lmp ensemble
