LAMMPS (19 Mar 2020)
package omp 0
using multi-threaded neighbor list subroutines
package omp 4
set 4 OpenMP thread(s) per MPI task
using multi-threaded neighbor list subroutines

read_restart after_heating_right_2400.lmp
  restoring atom style atomic from restart
  orthogonal box = (-0.282029 -0.282029 -0.564058) to (17.6094 17.6094 35.2189)
  pair style eam/alloy/omp stores no restart info
  864 atoms
  read_restart CPU = 0.492817 secs

reset_timestep 0
region left_cold block INF INF INF INF INF 17.28 units box
region right_hot block INF INF INF INF 17.28 INF units lattice
# region middle_cold block INF INF INF INF 3 9 units lattice

# #  2 6 units lattice
# region hot union 2 left_hot right_hot
group cold_atoms region left_cold
484 atoms in group cold_atoms
group hot_atoms region right_hot
445 atoms in group hot_atoms

variable dt equal 0.001

pair_style eam/alloy
pair_coeff * * Mishin-Ni-Al-2009.eam.alloy Ni Al

min_style cg
minimize 1e-15 1e-15 100000 500000
Unused restart file global fix info:
  fix style: npt/omp, fix ID: 1
Last active /omp style is pair_style eam/alloy/omp
  update every 1 steps, delay 0 steps, check yes
Step Temp E_pair E_mol TotEng Press
0    2433.7297   -3429.5818            0   -3158.0956    909.37968
Loop time of 4.73982 on 8 procs for 357 steps with 864 atoms

Minimization stats:
  Stopping criterion = energy tolerance
  Energy initial, next-to-last, final =
  Force two-norm initial, final = 59.294 6.43938e-06
  Force max component initial, final = 5.17658 1.59316e-06
  Final line search alpha, max atom move = 1 1.59316e-06
  Iterations, force evaluations = 357 632

variable T equal 1800

velocity all create $T 546445435 mom yes rot yes dist gaussian
velocity all create 1800 546445435 mom yes rot yes dist gaussian
# run 0
# neighbor 2 bin

# neigh_modify every 10 check yes
reset_timestep 0
fix 1 all npt temp $T $T $(dt*100) iso 0 0 $(dt*1000) drag 1.0
fix 1 all npt temp 1800 $T $(dt*100) iso 0 0 $(dt*1000) drag 1.0
fix 1 all npt temp 1800 1800 $(dt*100) iso 0 0 $(dt*1000) drag 1.0
fix 1 all npt temp 1800 1800 0.10000000000000000555 iso 0 0 $(dt*1000) drag 1.0
fix 1 all npt temp 1800 1800 0.10000000000000000555 iso 0 0 1 drag 1.0

# compute sys_pressure all pressure

variable sys_press equal "press/10000"
thermo 1000
thermo_style custom step temp vol press ke pe density v_sys_press
# variable s equal "vol"
# print "vol"
# thermo_modify press v_pressure

dump 3 all custom 1000 output.lammpstrj id type x y z

run 250000
Last active /omp style is pair_style eam/alloy/omp
Step Temp Volume Press KinEng PotEng Density v_sys_press
0         1800    11454.288   -92757.708    200.79271   -3733.3589    5.3666711   -9.2757708
Averages over the last 126 of 251 rows, steps 125000 to 250000:
Temp Volume Press KinEng PotEng Density v_sys_press
1801.45 10789.4 -418.609 200.954 -3618.79 5.69742 -0.0418609
Loop time of 2506.87 on 8 procs for 250000 steps with 864 atoms

compute z_chunk all chunk/atom bin/1d z lower 0.7 units box
fix 14 all ave/chunk 250000 1 250000 z_chunk density/number file num_density_equil_$T.txt
fix 14 all ave/chunk 250000 1 250000 z_chunk density/number file num_density_equil_1800.txt

run 0
Last active /omp style is pair_style eam/alloy/omp
Step Temp Volume Press KinEng PotEng Density v_sys_press
250000    1762.5027     10816.76   -903.80421    196.60983   -3612.2934    5.6829771 -0.090380421
Loop time of 2.74996e-06 on 8 procs for 0 steps with 864 atoms

# write_data after_heating_right_2400.in
# write_restart after_heating_right_2400.lmp

# dump 3 all custom 1000 traj_npt_new.lammpstrj id type x y z
# # dump_modify 3 element Ni Al

# run 500000

# write_data after_two_phase_equil.in
# write_restart after_two_phase_equil.lmp

# write_data temp.data
# create_box 1 box
# create_atoms 2 box args mol values

# # read_restart after_heating.lmp

# variable x equal

# variable P equal 0
# variable dt equal 0.001
# # variable loopVar loop 8

# region left_hot block 0 3 0 3 0 2 units lattic
# region cold block
# # print "step temp vol pe" file heating.txt screen no

# pair_style eam/alloy
# pair_coeff * * Mishin-Ni-Al-2009.eam.alloy Ni Al

# # velocity all create 300 123123

# # fix 2 all nve
# # run 1000
# # unfix 2

# neighbor 2 bin
# neigh_modify every 10 check yes

# timestep $(dt)

# # dump_modify 1 append yes
# dump 3 all custom 10000 traj_npt_new.lammpstrj id type x y z

# thermo 1000
# thermo_style custom step temp vol press ke pe density

# label ensemble
# reset_timestep 0

# fix 1 all npt temp $T $T $(dt*100) iso 0 0 $(dt*1000)
# print """
# <--------------------------------------------------------------------->
# <------------------ Equilibrating at temperature $T ----------------->
# <--------------------------------------------------------------------->
# """
# fix temp all print 100 "$(step) $(temp) $(press) $(vol) $(ke) $(pe) $(density)" file temp.txt screen no title  "step temp press vol ke pe density"
# run 250000
# fix out_file_1 all print 1000 "$(step) $(temp) $(press) $(vol) $(ke) $(pe) $(density)" file heating_$T.txt screen no title  "step temp press vol ke pe density"

# run 100000
# unfix out_file_1
# unfix 1
# # # clear
# # next loopVar
# # # thermo_modify flush yes
# # jump in.lmp ensemble
