LAMMPS (19 Mar 2020)
package omp 0
using multi-threaded neighbor list subroutines
package omp 4
set 4 OpenMP thread(s) per MPI task
using multi-threaded neighbor list subroutines

# units metal
# boundary p p p
# atom_style atomic

# lattice bcc 2.887902
read_restart after_two_phase_equil_700.lmp
  restoring atom style atomic from restart
  orthogonal box = (0.116987 0.116987 0.233975) to (22.9862 22.9862 45.9725)
  pair style eam/alloy/omp stores no restart info
  2048 atoms
  read_restart CPU = 0.001827 secs

# replicate 8 8 16

# lattice bcc 2.887902
# region box block  3 0 3 0 8 units lattice
region left_cold block INF INF INF INF INF 23.5 units box
region right_hot block INF INF INF INF 23.5 INF units box
# region middle_cold block INF INF INF INF 3 9 units lattice

#  2 6 units lattice
# region hot union 2 left_hot right_hot
group cold_atoms region left_cold
1088 atoms in group cold_atoms
group hot_atoms region right_hot
1058 atoms in group hot_atoms

variable dt equal 0.001
variable T equal 2400
variable sys_press equal "press/10000"

pair_style eam/alloy
pair_coeff * * Mishin-Ni-Al-2009.eam.alloy Ni Al
# write_data temp.data
# velocity all create 300 546445435 mom yes rot yes dist gaussian

neighbor 2 bin

neigh_modify every 10 check yes

reset_timestep 0

fix 1 hot_atoms npt temp 1000 $T $(dt*100) iso 0 0 $(dt*1000)
fix 1 hot_atoms npt temp 1000 2400 $(dt*100) iso 0 0 $(dt*1000)
fix 1 hot_atoms npt temp 1000 2400 0.10000000000000000555 iso 0 0 $(dt*1000)
fix 1 hot_atoms npt temp 1000 2400 0.10000000000000000555 iso 0 0 1
  fix style: npt/omp, fix ID: 1

thermo 1000
thermo_style custom step temp vol press ke pe density v_sys_press

dump 3 all custom 1000 right_melting.lammpstrj id type x y z
# dump_modify 3 element Ni Al

run 100000
All restart file global fix info was re-assigned
Last active /omp style is pair_style eam/alloy/omp
  update every 10 steps, delay 10 steps, check yes
Step Temp Volume Press KinEng PotEng Density v_sys_press
0    704.88974    23921.326    2120.8198    186.51066   -9042.3182    6.0912166   0.21208198
Averages over the last 51 of 101 rows, steps 50000 to 100000:
Temp Volume Press KinEng PotEng Density v_sys_press
2050.67 26238.7 -1.53764 542.599 -8373.17 5.55855 -0.000153764
Loop time of 692.872 on 8 procs for 100000 steps with 2048 atoms

write_data after_right_melting_$T.in
write_data after_right_melting_2400.in
Last active /omp style is pair_style eam/alloy/omp
write_restart after_right_meltin_$T.lmp
write_restart after_right_meltin_2400.lmp
Last active /omp style is pair_style eam/alloy/omp
compute z_chunk all chunk/atom bin/1d z lower 0.7 units box
fix 14 all ave/chunk 100000 1 100000 z_chunk density/number file num_density_700.txt

run 0
Last active /omp style is pair_style eam/alloy/omp
Step Temp Volume Press KinEng PotEng Density v_sys_press
100000    2432.9566    27240.787   -3521.7074    643.74941   -8101.7453    5.3489636  -0.35217074
Loop time of 1.75e-06 on 8 procs for 0 steps with 2048 atoms
