LAMMPS (29 Oct 2020)
package omp 0
using multi-threaded neighbor list subroutines
package omp 2
set 2 OpenMP thread(s) per MPI task
using multi-threaded neighbor list subroutines
units metal
dimension 3
boundary p p p

lattice fcc 3.5440
Lattice spacing in x,y,z = 3.5440000 3.5440000 3.5440000
region box block 0 8 0 8 0 8 units lattice
create_box 1 box
Created orthogonal box = (0.0000000 0.0000000 0.0000000) to (28.352000 28.352000 28.352000)
create_atoms 1 box
Created 2048 atoms

# read_restart after_heating_2400.lmp

variable P equal 0
variable dt equal 0.001
variable loopVar loop 22
variable sys_press equal "press/10000"
# print "step temp vol pe" file heating.txt screen no

pair_style eam/alloy
pair_coeff * * Co_Zhou04.eam.alloy Co
Reading eam/alloy potential file Co_Zhou04.eam.alloy with DATE: 2018-03-30

neighbor 2 bin
neigh_modify every 10 check yes

thermo 1000
thermo_style custom step temp vol press ke pe density

timestep $(dt)
timestep 0.0010000000000000000208

# fix 2 all npt temp 300 300 $(dt*100) iso 0 0 $(dt*1000)
# run 30000
# unfix 2

# dump_modify 1 append yes
# dump 3 all custom 10000 traj_npt_new.lammpstrj id type x y z

velocity all create 300 123123

print """
yo aagadi
"""

yo aagadi

label ensemble

print """
Label pachadi solti, hos garam.
"""

Label pachadi solti, hos garam.

variable T equal 200+1*100
# variable T equal 1200
# velocity all create 1200 123123
reset_timestep 0
fix 1 all npt temp $T $T $(dt*100) iso 0 0 $(dt*1000)
fix 1 all npt temp 300 $T $(dt*100) iso 0 0 $(dt*1000)
fix 1 all npt temp 300 300 $(dt*100) iso 0 0 $(dt*1000)
fix 1 all npt temp 300 300 0.10000000000000000555 iso 0 0 $(dt*1000)
fix 1 all npt temp 300 300 0.10000000000000000555 iso 0 0 1
print """
<--------------------------------------------------------------------->
<------------------ Equilibrating at temperature $T ----------------->
<--------------------------------------------------------------------->
"""

<--------------------------------------------------------------------->
<------------------ Equilibrating at temperature 300 ----------------->
<--------------------------------------------------------------------->

run 350000
Last active /omp style is pair_style eam/alloy/omp
  update every 10 steps, delay 10 steps, check yes
Step Temp Volume Press KinEng PotEng Density
0          300    22790.356    11400.454    79.378655    -9015.757        8.794
Averages over the last 176 of 351 rows, steps 175000 to 350000:
Temp Volume Press KinEng PotEng Density
300.445 23165.6 135.134 79.4963 -8935.62 8.65155
Loop time of 694.91 on 8 procs for 350000 steps with 2048 atoms

# fix 132 all momentum 100 linear 1 1 1 angular

# dump 3 all custom 1000 traj_npt_new.lammpstrj id type x y z
run 50000
Last active /omp style is pair_style eam/alloy/omp
Step Temp Volume Press KinEng PotEng Density
350000    298.15438     23177.46   -867.40675    78.890313   -8935.7512    8.6471249
Averages over the last 26 of 51 rows, steps 375000 to 400000:
Temp Volume Press KinEng PotEng Density
299.265 23159.7 526.85 79.1843 -8935.7 8.65377
Loop time of 98.9941 on 8 procs for 50000 steps with 2048 atoms

unfix temp
unfix out_file_1
# unfix 1
# # clear
write_data after_heating_$T.in
write_data after_heating_300.in
System init for write_data ...
Last active /omp style is pair_style eam/alloy/omp
write_restart after_heating_$T.lmp
write_restart after_heating_300.lmp
System init for write_restart ...
Last active /omp style is pair_style eam/alloy/omp
next loopVar
# # # thermo_modify flush yes
jump in.lmp ensemble

print """
Label pachadi solti, hos garam.
"""

Label pachadi solti, hos garam.

variable T equal 200+2*100
# variable T equal 1200
# velocity all create 1200 123123
reset_timestep 0
fix 1 all npt temp $T $T $(dt*100) iso 0 0 $(dt*1000)
fix 1 all npt temp 400 $T $(dt*100) iso 0 0 $(dt*1000)
fix 1 all npt temp 400 400 $(dt*100) iso 0 0 $(dt*1000)
fix 1 all npt temp 400 400 0.10000000000000000555 iso 0 0 $(dt*1000)
fix 1 all npt temp 400 400 0.10000000000000000555 iso 0 0 1
print """
<--------------------------------------------------------------------->
<------------------ Equilibrating at temperature $T ----------------->
<--------------------------------------------------------------------->
"""

<--------------------------------------------------------------------->
<------------------ Equilibrating at temperature 400 ----------------->
<--------------------------------------------------------------------->

run 350000
Last active /omp style is pair_style eam/alloy/omp
Step Temp Volume Press KinEng PotEng Density
0    284.27074    23185.029   -1112.0763    75.216765   -8933.7863    8.6443018
Averages over the last 176 of 351 rows, steps 175000 to 350000:
Temp Volume Press KinEng PotEng Density
399.734 23263.1 39.2133 105.768 -8907.62 8.6153
Loop time of 713.509 on 8 procs for 350000 steps with 2048 atoms

# fix 132 all momentum 100 linear 1 1 1 angular

# dump 3 all custom 1000 traj_npt_new.lammpstrj id type x y z
run 50000
Last active /omp style is pair_style eam/alloy/omp
Step Temp Volume Press KinEng PotEng Density
350000    396.24713    23310.616   -3697.8059    104.84521   -8908.3044    8.5977303
Averages over the last 26 of 51 rows, steps 375000 to 400000:
Temp Volume Press KinEng PotEng Density
400.236 23264.3 -70.3952 105.901 -8907.71 8.61484
Loop time of 103.549 on 8 procs for 50000 steps with 2048 atoms

unfix temp
unfix out_file_1
# unfix 1
# # clear
write_data after_heating_$T.in
write_data after_heating_400.in
System init for write_data ...
Last active /omp style is pair_style eam/alloy/omp
write_restart after_heating_$T.lmp
write_restart after_heating_400.lmp
System init for write_restart ...
Last active /omp style is pair_style eam/alloy/omp
next loopVar
# # # thermo_modify flush yes
jump in.lmp ensemble

print """
Label pachadi solti, hos garam.
"""

Label pachadi solti, hos garam.

variable T equal 200+3*100
# variable T equal 1200
# velocity all create 1200 123123
reset_timestep 0
fix 1 all npt temp $T $T $(dt*100) iso 0 0 $(dt*1000)
fix 1 all npt temp 500 $T $(dt*100) iso 0 0 $(dt*1000)
fix 1 all npt temp 500 500 $(dt*100) iso 0 0 $(dt*1000)
fix 1 all npt temp 500 500 0.10000000000000000555 iso 0 0 $(dt*1000)
fix 1 all npt temp 500 500 0.10000000000000000555 iso 0 0 1
print """
<--------------------------------------------------------------------->
<------------------ Equilibrating at temperature $T ----------------->
<--------------------------------------------------------------------->
"""

<--------------------------------------------------------------------->
<------------------ Equilibrating at temperature 500 ----------------->
<--------------------------------------------------------------------->

run 350000
Last active /omp style is pair_style eam/alloy/omp
Step Temp Volume Press KinEng PotEng Density
0    399.57346    23278.379   -944.28154    105.72535   -8906.9319    8.6096366
Averages over the last 176 of 351 rows, steps 175000 to 350000:
Temp Volume Press KinEng PotEng Density
498.636 23358.8 45.106 131.937 -8879.62 8.58001
Loop time of 726.346 on 8 procs for 350000 steps with 2048 atoms

# fix 132 all momentum 100 linear 1 1 1 angular

# dump 3 all custom 1000 traj_npt_new.lammpstrj id type x y z
run 50000
Last active /omp style is pair_style eam/alloy/omp
Step Temp Volume Press KinEng PotEng Density
350000     493.9205     23397.27   -2299.8331    130.68915    -8877.226    8.5658875
Averages over the last 26 of 51 rows, steps 375000 to 400000:
Temp Volume Press KinEng PotEng Density
502.072 23363.3 -187.037 132.846 -8879.37 8.57834
Loop time of 100.672 on 8 procs for 50000 steps with 2048 atoms

unfix temp
unfix out_file_1
# unfix 1
# # clear
write_data after_heating_$T.in
write_data after_heating_500.in
System init for write_data ...
Last active /omp style is pair_style eam/alloy/omp
write_restart after_heating_$T.lmp
write_restart after_heating_500.lmp
System init for write_restart ...
Last active /omp style is pair_style eam/alloy/omp
next loopVar
# # # thermo_modify flush yes
jump in.lmp ensemble

print """
Label pachadi solti, hos garam.
"""

Label pachadi solti, hos garam.

variable T equal 200+4*100
# variable T equal 1200
# velocity all create 1200 123123
reset_timestep 0
fix 1 all npt temp $T $T $(dt*100) iso 0 0 $(dt*1000)
fix 1 all npt temp 600 $T $(dt*100) iso 0 0 $(dt*1000)
fix 1 all npt temp 600 600 $(dt*100) iso 0 0 $(dt*1000)
fix 1 all npt temp 600 600 0.10000000000000000555 iso 0 0 $(dt*1000)
fix 1 all npt temp 600 600 0.10000000000000000555 iso 0 0 1
print """
<--------------------------------------------------------------------->
<------------------ Equilibrating at temperature $T ----------------->
<--------------------------------------------------------------------->
"""

<--------------------------------------------------------------------->
<------------------ Equilibrating at temperature 600 ----------------->
<--------------------------------------------------------------------->

run 350000
Last active /omp style is pair_style eam/alloy/omp
Step Temp Volume Press KinEng PotEng Density
0    505.58517    23399.595   -2452.5352    133.77557   -8877.1549    8.5650367
Averages over the last 28 of 55 rows, steps 27000 to 54000:
Temp Volume Press KinEng PotEng Density
600.87 23460.3 -162.909 158.988 -8850.81 8.5429
