LAMMPS (29 Oct 2020)
package omp 0
using multi-threaded neighbor list subroutines
package omp 2
set 2 OpenMP thread(s) per MPI task
using multi-threaded neighbor list subroutines
# units metal  #<----->
# dimension 3
# boundary p p p

# lattice fcc 3.5440
# region box block 0 8 0 8 0 8 units lattice
# create_box 1 box
# create_atoms 1 box

# read_restart after_heating_press_1000000_5300.lmp  #<----->
read_restart after_cooling_press_1000000_3100.lmp
Reading restart file ...
  restart file = 29 Oct 2020, LAMMPS = 29 Oct 2020
  restoring atom style atomic from restart
  orthogonal box = (1.0154563 1.0154563 1.0154563) to (27.336544 27.336544 27.336544)
  pair style eam/alloy/omp stores no restart info
  2048 atoms
  read_restart CPU = 0.001 seconds

variable P equal 1000000     #<----->
variable dt equal 0.001
variable loopVar loop 3
variable sys_press equal "press/10000"

# variable sim string "heating"  #<----->
variable sim string "cooling"

pair_style eam/alloy
pair_coeff * * Co_Zhou04.eam.alloy Co
Reading eam/alloy potential file Co_Zhou04.eam.alloy with DATE: 2018-03-30

neighbor 2 bin
neigh_modify every 10 check yes

thermo 1000
thermo_style custom step temp vol press ke pe density

timestep $(dt)
timestep 0.0010000000000000000208

# velocity all create 4700 123123 #<----->

print """
yo aagadi
"""

yo aagadi

label ensemble

print """
Label pachadi solti, hos garam.
"""

Label pachadi solti, hos garam.

variable T equal 3100-1*100
# variable T equal 4950

reset_timestep 0
fix 1 all npt temp $T $T $(dt*100) iso $P $P $(dt*1000)
fix 1 all npt temp 3000 $T $(dt*100) iso $P $P $(dt*1000)
fix 1 all npt temp 3000 3000 $(dt*100) iso $P $P $(dt*1000)
fix 1 all npt temp 3000 3000 0.10000000000000000555 iso $P $P $(dt*1000)
fix 1 all npt temp 3000 3000 0.10000000000000000555 iso 1000000 $P $(dt*1000)
fix 1 all npt temp 3000 3000 0.10000000000000000555 iso 1000000 1000000 $(dt*1000)
fix 1 all npt temp 3000 3000 0.10000000000000000555 iso 1000000 1000000 1
  fix style: npt/omp, fix ID: 1
print """
<--------------------------------------------------------------------->
<------------------ Equilibrating at temperature $T ----------------->
<--------------------------------------------------------------------->
"""

<--------------------------------------------------------------------->
<------------------ Equilibrating at temperature 3000 ----------------->
<--------------------------------------------------------------------->

run 250000
All restart file global fix info was re-assigned
Last active /omp style is pair_style eam/alloy/omp
  update every 10 steps, delay 10 steps, check yes
Step Temp Volume Press KinEng PotEng Density
0    3120.0229     18235.24    1017785.7    825.54407   -6868.2883    10.990718
Averages over the last 126 of 251 rows, steps 125000 to 250000:
Temp Volume Press KinEng PotEng Density
2992.27 18257.1 998668 791.741 -6930.84 10.9776
Loop time of 550.1 on 8 procs for 250000 steps with 2048 atoms

# fix 132 all momentum 100 linear 1 1 1 angular

# dump 3 all custom 1000 traj_npt_new.lammpstrj id type x y z
run 50000
Last active /omp style is pair_style eam/alloy/omp
Step Temp Volume Press KinEng PotEng Density
250000    2969.6188    18224.401    1011025.1    785.74783   -6896.2576    10.997255
Averages over the last 26 of 51 rows, steps 275000 to 300000:
Temp Volume Press KinEng PotEng Density
3003.63 18227.9 1.00763e+06 794.746 -6912.75 10.9952
Loop time of 113.987 on 8 procs for 50000 steps with 2048 atoms

unfix temp
unfix out_file_1

write_data after_cooling_press_$P_$T.in
write_data after_cooling_press_1000000_$T.in
write_data after_cooling_press_1000000_3000.in
System init for write_data ...
Last active /omp style is pair_style eam/alloy/omp
write_restart after_cooling_press_$P_$T.lmp
write_restart after_cooling_press_1000000_$T.lmp
write_restart after_cooling_press_1000000_3000.lmp
System init for write_restart ...
Last active /omp style is pair_style eam/alloy/omp

next loopVar  #<----->
jump in.lmp ensemble

print """
Label pachadi solti, hos garam.
"""

Label pachadi solti, hos garam.

variable T equal 3100-2*100
# variable T equal 4950

reset_timestep 0
fix 1 all npt temp $T $T $(dt*100) iso $P $P $(dt*1000)
fix 1 all npt temp 2900 $T $(dt*100) iso $P $P $(dt*1000)
fix 1 all npt temp 2900 2900 $(dt*100) iso $P $P $(dt*1000)
fix 1 all npt temp 2900 2900 0.10000000000000000555 iso $P $P $(dt*1000)
fix 1 all npt temp 2900 2900 0.10000000000000000555 iso 1000000 $P $(dt*1000)
fix 1 all npt temp 2900 2900 0.10000000000000000555 iso 1000000 1000000 $(dt*1000)
fix 1 all npt temp 2900 2900 0.10000000000000000555 iso 1000000 1000000 1
print """
<--------------------------------------------------------------------->
<------------------ Equilibrating at temperature $T ----------------->
<--------------------------------------------------------------------->
"""

<--------------------------------------------------------------------->
<------------------ Equilibrating at temperature 2900 ----------------->
<--------------------------------------------------------------------->

run 250000
Last active /omp style is pair_style eam/alloy/omp
Step Temp Volume Press KinEng PotEng Density
0    3018.6226    18215.744    1013570.2      798.714   -6898.9961    11.002482
Averages over the last 126 of 251 rows, steps 125000 to 250000:
Temp Volume Press KinEng PotEng Density
2899.34 18223.2 998684 767.153 -6954.2 10.998
Loop time of 571.432 on 8 procs for 250000 steps with 2048 atoms

# fix 132 all momentum 100 linear 1 1 1 angular

# dump 3 all custom 1000 traj_npt_new.lammpstrj id type x y z
run 50000
Last active /omp style is pair_style eam/alloy/omp
Step Temp Volume Press KinEng PotEng Density
250000    2845.7046    18179.655    1010931.5    752.96067   -6925.3166    11.024323
Averages over the last 26 of 51 rows, steps 275000 to 300000:
Temp Volume Press KinEng PotEng Density
2881.71 18223.9 998708 762.488 -6952.31 10.9976
Loop time of 112.398 on 8 procs for 50000 steps with 2048 atoms

unfix temp
unfix out_file_1

write_data after_cooling_press_$P_$T.in
write_data after_cooling_press_1000000_$T.in
write_data after_cooling_press_1000000_2900.in
System init for write_data ...
Last active /omp style is pair_style eam/alloy/omp
write_restart after_cooling_press_$P_$T.lmp
write_restart after_cooling_press_1000000_$T.lmp
write_restart after_cooling_press_1000000_2900.lmp
System init for write_restart ...
Last active /omp style is pair_style eam/alloy/omp

next loopVar  #<----->
jump in.lmp ensemble

print """
Label pachadi solti, hos garam.
"""

Label pachadi solti, hos garam.

variable T equal 3100-3*100
# variable T equal 4950

reset_timestep 0
fix 1 all npt temp $T $T $(dt*100) iso $P $P $(dt*1000)
fix 1 all npt temp 2800 $T $(dt*100) iso $P $P $(dt*1000)
fix 1 all npt temp 2800 2800 $(dt*100) iso $P $P $(dt*1000)
fix 1 all npt temp 2800 2800 0.10000000000000000555 iso $P $P $(dt*1000)
fix 1 all npt temp 2800 2800 0.10000000000000000555 iso 1000000 $P $(dt*1000)
fix 1 all npt temp 2800 2800 0.10000000000000000555 iso 1000000 1000000 $(dt*1000)
fix 1 all npt temp 2800 2800 0.10000000000000000555 iso 1000000 1000000 1
print """
<--------------------------------------------------------------------->
<------------------ Equilibrating at temperature $T ----------------->
<--------------------------------------------------------------------->
"""

<--------------------------------------------------------------------->
<------------------ Equilibrating at temperature 2800 ----------------->
<--------------------------------------------------------------------->

run 250000
Last active /omp style is pair_style eam/alloy/omp
Step Temp Volume Press KinEng PotEng Density
0    2892.2793    18179.351    1013215.5    765.28413   -6917.5669    11.024507
Averages over the last 126 of 251 rows, steps 125000 to 250000:
Temp Volume Press KinEng PotEng Density
2804.02 18079.7 1.00096e+06 741.932 -7076.58 11.0858
Loop time of 569.277 on 8 procs for 250000 steps with 2048 atoms

# fix 132 all momentum 100 linear 1 1 1 angular

# dump 3 all custom 1000 traj_npt_new.lammpstrj id type x y z
run 50000
Last active /omp style is pair_style eam/alloy/omp
Step Temp Volume Press KinEng PotEng Density
250000    2776.6942    17945.116    997244.75    734.70084    -7228.823    11.168408
Averages over the last 26 of 51 rows, steps 275000 to 300000:
Temp Volume Press KinEng PotEng Density
2798.02 17934.9 1.0004e+06 740.345 -7227.18 11.1748
Loop time of 112.181 on 8 procs for 50000 steps with 2048 atoms

unfix temp
unfix out_file_1

write_data after_cooling_press_$P_$T.in
write_data after_cooling_press_1000000_$T.in
write_data after_cooling_press_1000000_2800.in
System init for write_data ...
Last active /omp style is pair_style eam/alloy/omp
write_restart after_cooling_press_$P_$T.lmp
write_restart after_cooling_press_1000000_$T.lmp
write_restart after_cooling_press_1000000_2800.lmp
System init for write_restart ...
Last active /omp style is pair_style eam/alloy/omp

next loopVar  #<----->
jump in.lmp ensemble
