LAMMPS (29 Oct 2020)
package omp 0
using multi-threaded neighbor list subroutines
package omp 2
set 2 OpenMP thread(s) per MPI task
using multi-threaded neighbor list subroutines
# units metal  #<----->
# dimension 3
# boundary p p p

# lattice fcc 3.5440
# region box block 0 8 0 8 0 8 units lattice
# create_box 1 box
# create_atoms 1 box

read_restart after_heating_press_1000000_5300.lmp  #<----->
Reading restart file ...
  restart file = 29 Oct 2020, LAMMPS = 29 Oct 2020
  restoring atom style atomic from restart
  orthogonal box = (0.85045689 0.85045689 0.85045689) to (27.501543 27.501543 27.501543)
  pair style eam/alloy/omp stores no restart info
  2048 atoms
  read_restart CPU = 0.002 seconds
# read_restart after_cooling_press_800000_2700.lmp

variable P equal 1000000     #<----->
variable dt equal 0.001
variable loopVar loop 6
variable sys_press equal "press/10000"

# variable sim string "heating"  #<----->
variable sim string "cooling"

pair_style eam/alloy
pair_coeff * * Co_Zhou04.eam.alloy Co
Reading eam/alloy potential file Co_Zhou04.eam.alloy with DATE: 2018-03-30

neighbor 2 bin
neigh_modify every 10 check yes

thermo 1000
thermo_style custom step temp vol press ke pe density

timestep $(dt)
timestep 0.0010000000000000000208

# velocity all create 4700 123123 #<----->

print """
yo aagadi
"""

yo aagadi

label ensemble

print """
Label pachadi solti, hos garam.
"""

Label pachadi solti, hos garam.

variable T equal 3700-1*100
# variable T equal 4950

reset_timestep 0
fix 1 all npt temp $T $T $(dt*100) iso $P $P $(dt*1000)
fix 1 all npt temp 3600 $T $(dt*100) iso $P $P $(dt*1000)
fix 1 all npt temp 3600 3600 $(dt*100) iso $P $P $(dt*1000)
fix 1 all npt temp 3600 3600 0.10000000000000000555 iso $P $P $(dt*1000)
fix 1 all npt temp 3600 3600 0.10000000000000000555 iso 1000000 $P $(dt*1000)
fix 1 all npt temp 3600 3600 0.10000000000000000555 iso 1000000 1000000 $(dt*1000)
fix 1 all npt temp 3600 3600 0.10000000000000000555 iso 1000000 1000000 1
  fix style: npt/omp, fix ID: 1
print """
<--------------------------------------------------------------------->
<------------------ Equilibrating at temperature $T ----------------->
<--------------------------------------------------------------------->
"""

<--------------------------------------------------------------------->
<------------------ Equilibrating at temperature 3600 ----------------->
<--------------------------------------------------------------------->

run 250000
All restart file global fix info was re-assigned
Last active /omp style is pair_style eam/alloy/omp
  update every 10 steps, delay 10 steps, check yes
Step Temp Volume Press KinEng PotEng Density
0    5289.8327    18929.744    1003799.3     1399.666    -6494.625    10.587485
Averages over the last 126 of 251 rows, steps 125000 to 250000:
Temp Volume Press KinEng PotEng Density
3598.53 18441.8 999917 952.156 -6805.67 10.8677
Loop time of 611.224 on 8 procs for 250000 steps with 2048 atoms

# fix 132 all momentum 100 linear 1 1 1 angular

# dump 3 all custom 1000 traj_npt_new.lammpstrj id type x y z
run 50000
Last active /omp style is pair_style eam/alloy/omp
Step Temp Volume Press KinEng PotEng Density
250000    3525.5659     18420.04    1006019.2    932.84892   -6789.8985    10.880453
Averages over the last 26 of 51 rows, steps 275000 to 300000:
Temp Volume Press KinEng PotEng Density
3589.13 18450 998498 949.667 -6805.51 10.8628
Loop time of 151.041 on 8 procs for 50000 steps with 2048 atoms

unfix temp
unfix out_file_1

write_data after_cooling_press_$P_$T.in
write_data after_cooling_press_1000000_$T.in
write_data after_cooling_press_1000000_3600.in
System init for write_data ...
Last active /omp style is pair_style eam/alloy/omp
write_restart after_cooling_press_$P_$T.lmp
write_restart after_cooling_press_1000000_$T.lmp
write_restart after_cooling_press_1000000_3600.lmp
System init for write_restart ...
Last active /omp style is pair_style eam/alloy/omp

next loopVar  #<----->
jump in.lmp ensemble

print """
Label pachadi solti, hos garam.
"""

Label pachadi solti, hos garam.

variable T equal 3700-2*100
# variable T equal 4950

reset_timestep 0
fix 1 all npt temp $T $T $(dt*100) iso $P $P $(dt*1000)
fix 1 all npt temp 3500 $T $(dt*100) iso $P $P $(dt*1000)
fix 1 all npt temp 3500 3500 $(dt*100) iso $P $P $(dt*1000)
fix 1 all npt temp 3500 3500 0.10000000000000000555 iso $P $P $(dt*1000)
fix 1 all npt temp 3500 3500 0.10000000000000000555 iso 1000000 $P $(dt*1000)
fix 1 all npt temp 3500 3500 0.10000000000000000555 iso 1000000 1000000 $(dt*1000)
fix 1 all npt temp 3500 3500 0.10000000000000000555 iso 1000000 1000000 1
print """
<--------------------------------------------------------------------->
<------------------ Equilibrating at temperature $T ----------------->
<--------------------------------------------------------------------->
"""

<--------------------------------------------------------------------->
<------------------ Equilibrating at temperature 3500 ----------------->
<--------------------------------------------------------------------->

run 250000
Last active /omp style is pair_style eam/alloy/omp
Step Temp Volume Press KinEng PotEng Density
0    3666.9833     18474.25    992227.83    970.26733   -6825.9287    10.848526
Averages over the last 126 of 251 rows, steps 125000 to 250000:
Temp Volume Press KinEng PotEng Density
3501.58 18415.7 999038 926.502 -6825.68 10.883
Loop time of 601.884 on 8 procs for 250000 steps with 2048 atoms

# fix 132 all momentum 100 linear 1 1 1 angular

# dump 3 all custom 1000 traj_npt_new.lammpstrj id type x y z
run 50000
Last active /omp style is pair_style eam/alloy/omp
Step Temp Volume Press KinEng PotEng Density
250000    3476.1194    18429.157    999060.11     919.7656   -6809.0498    10.875071
Averages over the last 26 of 51 rows, steps 275000 to 300000:
Temp Volume Press KinEng PotEng Density
3487.31 18409.2 1.00088e+06 922.726 -6820.22 10.8869
Loop time of 117.287 on 8 procs for 50000 steps with 2048 atoms

unfix temp
unfix out_file_1

write_data after_cooling_press_$P_$T.in
write_data after_cooling_press_1000000_$T.in
write_data after_cooling_press_1000000_3500.in
System init for write_data ...
Last active /omp style is pair_style eam/alloy/omp
write_restart after_cooling_press_$P_$T.lmp
write_restart after_cooling_press_1000000_$T.lmp
write_restart after_cooling_press_1000000_3500.lmp
System init for write_restart ...
Last active /omp style is pair_style eam/alloy/omp

next loopVar  #<----->
jump in.lmp ensemble

print """
Label pachadi solti, hos garam.
"""

Label pachadi solti, hos garam.

variable T equal 3700-3*100
# variable T equal 4950

reset_timestep 0
fix 1 all npt temp $T $T $(dt*100) iso $P $P $(dt*1000)
fix 1 all npt temp 3400 $T $(dt*100) iso $P $P $(dt*1000)
fix 1 all npt temp 3400 3400 $(dt*100) iso $P $P $(dt*1000)
fix 1 all npt temp 3400 3400 0.10000000000000000555 iso $P $P $(dt*1000)
fix 1 all npt temp 3400 3400 0.10000000000000000555 iso 1000000 $P $(dt*1000)
fix 1 all npt temp 3400 3400 0.10000000000000000555 iso 1000000 1000000 $(dt*1000)
fix 1 all npt temp 3400 3400 0.10000000000000000555 iso 1000000 1000000 1
print """
<--------------------------------------------------------------------->
<------------------ Equilibrating at temperature $T ----------------->
<--------------------------------------------------------------------->
"""

<--------------------------------------------------------------------->
<------------------ Equilibrating at temperature 3400 ----------------->
<--------------------------------------------------------------------->

run 250000
Last active /omp style is pair_style eam/alloy/omp
Step Temp Volume Press KinEng PotEng Density
0    3612.0963     18409.05    1007390.5    955.74449   -6796.1538    10.886949
Averages over the last 126 of 251 rows, steps 125000 to 250000:
Temp Volume Press KinEng PotEng Density
3389.02 18382 1.0001e+06 896.719 -6841.88 10.903
Loop time of 583.754 on 8 procs for 250000 steps with 2048 atoms

# fix 132 all momentum 100 linear 1 1 1 angular

# dump 3 all custom 1000 traj_npt_new.lammpstrj id type x y z
run 50000
Last active /omp style is pair_style eam/alloy/omp
Step Temp Volume Press KinEng PotEng Density
250000    3311.1372    18357.713    1001677.4    876.11205   -6848.9604    10.917394
Averages over the last 26 of 51 rows, steps 275000 to 300000:
Temp Volume Press KinEng PotEng Density
3405.2 18387 999000 901.001 -6844.69 10.9001
Loop time of 116.04 on 8 procs for 50000 steps with 2048 atoms

unfix temp
unfix out_file_1

write_data after_cooling_press_$P_$T.in
write_data after_cooling_press_1000000_$T.in
write_data after_cooling_press_1000000_3400.in
System init for write_data ...
Last active /omp style is pair_style eam/alloy/omp
write_restart after_cooling_press_$P_$T.lmp
write_restart after_cooling_press_1000000_$T.lmp
write_restart after_cooling_press_1000000_3400.lmp
System init for write_restart ...
Last active /omp style is pair_style eam/alloy/omp

next loopVar  #<----->
jump in.lmp ensemble

print """
Label pachadi solti, hos garam.
"""

Label pachadi solti, hos garam.

variable T equal 3700-4*100
# variable T equal 4950

reset_timestep 0
fix 1 all npt temp $T $T $(dt*100) iso $P $P $(dt*1000)
fix 1 all npt temp 3300 $T $(dt*100) iso $P $P $(dt*1000)
fix 1 all npt temp 3300 3300 $(dt*100) iso $P $P $(dt*1000)
fix 1 all npt temp 3300 3300 0.10000000000000000555 iso $P $P $(dt*1000)
fix 1 all npt temp 3300 3300 0.10000000000000000555 iso 1000000 $P $(dt*1000)
fix 1 all npt temp 3300 3300 0.10000000000000000555 iso 1000000 1000000 $(dt*1000)
fix 1 all npt temp 3300 3300 0.10000000000000000555 iso 1000000 1000000 1
print """
<--------------------------------------------------------------------->
<------------------ Equilibrating at temperature $T ----------------->
<--------------------------------------------------------------------->
"""

<--------------------------------------------------------------------->
<------------------ Equilibrating at temperature 3300 ----------------->
<--------------------------------------------------------------------->

run 250000
Last active /omp style is pair_style eam/alloy/omp
Step Temp Volume Press KinEng PotEng Density
0    3580.2934    18495.925    975785.11    947.32958   -6882.5759    10.835813
Averages over the last 126 of 251 rows, steps 125000 to 250000:
Temp Volume Press KinEng PotEng Density
3291.65 18348.2 1.00006e+06 870.955 -6865.09 10.9231
Loop time of 594.374 on 8 procs for 250000 steps with 2048 atoms

# fix 132 all momentum 100 linear 1 1 1 angular

# dump 3 all custom 1000 traj_npt_new.lammpstrj id type x y z
run 50000
Last active /omp style is pair_style eam/alloy/omp
Step Temp Volume Press KinEng PotEng Density
250000    3339.9719    18368.216    993876.44    883.74159   -6879.6018    10.911151
Averages over the last 26 of 51 rows, steps 275000 to 300000:
Temp Volume Press KinEng PotEng Density
3302.05 18341 1.00208e+06 873.708 -6862.35 10.9274
Loop time of 116.699 on 8 procs for 50000 steps with 2048 atoms

unfix temp
unfix out_file_1

write_data after_cooling_press_$P_$T.in
write_data after_cooling_press_1000000_$T.in
write_data after_cooling_press_1000000_3300.in
System init for write_data ...
Last active /omp style is pair_style eam/alloy/omp
write_restart after_cooling_press_$P_$T.lmp
write_restart after_cooling_press_1000000_$T.lmp
write_restart after_cooling_press_1000000_3300.lmp
System init for write_restart ...
Last active /omp style is pair_style eam/alloy/omp

next loopVar  #<----->
jump in.lmp ensemble

print """
Label pachadi solti, hos garam.
"""

Label pachadi solti, hos garam.

variable T equal 3700-5*100
# variable T equal 4950

reset_timestep 0
fix 1 all npt temp $T $T $(dt*100) iso $P $P $(dt*1000)
fix 1 all npt temp 3200 $T $(dt*100) iso $P $P $(dt*1000)
fix 1 all npt temp 3200 3200 $(dt*100) iso $P $P $(dt*1000)
fix 1 all npt temp 3200 3200 0.10000000000000000555 iso $P $P $(dt*1000)
fix 1 all npt temp 3200 3200 0.10000000000000000555 iso 1000000 $P $(dt*1000)
fix 1 all npt temp 3200 3200 0.10000000000000000555 iso 1000000 1000000 $(dt*1000)
fix 1 all npt temp 3200 3200 0.10000000000000000555 iso 1000000 1000000 1
print """
<--------------------------------------------------------------------->
<------------------ Equilibrating at temperature $T ----------------->
<--------------------------------------------------------------------->
"""

<--------------------------------------------------------------------->
<------------------ Equilibrating at temperature 3200 ----------------->
<--------------------------------------------------------------------->

run 250000
Last active /omp style is pair_style eam/alloy/omp
Step Temp Volume Press KinEng PotEng Density
0    3263.2449     18366.48    992708.64    863.43997   -6884.1806    10.912183
Averages over the last 126 of 251 rows, steps 125000 to 250000:
Temp Volume Press KinEng PotEng Density
3198.67 18324 997942 846.354 -6889.71 10.9375
Loop time of 579.76 on 8 procs for 250000 steps with 2048 atoms

# fix 132 all momentum 100 linear 1 1 1 angular

# dump 3 all custom 1000 traj_npt_new.lammpstrj id type x y z
run 50000
Last active /omp style is pair_style eam/alloy/omp
Step Temp Volume Press KinEng PotEng Density
250000    3196.6742    18274.413    1010852.9    845.82566   -6866.5245    10.967159
Averages over the last 26 of 51 rows, steps 275000 to 300000:
Temp Volume Press KinEng PotEng Density
3215.76 18315.5 1.00011e+06 850.874 -6888.69 10.9426
Loop time of 117.927 on 8 procs for 50000 steps with 2048 atoms

unfix temp
unfix out_file_1

write_data after_cooling_press_$P_$T.in
write_data after_cooling_press_1000000_$T.in
write_data after_cooling_press_1000000_3200.in
System init for write_data ...
Last active /omp style is pair_style eam/alloy/omp
write_restart after_cooling_press_$P_$T.lmp
write_restart after_cooling_press_1000000_$T.lmp
write_restart after_cooling_press_1000000_3200.lmp
System init for write_restart ...
Last active /omp style is pair_style eam/alloy/omp

next loopVar  #<----->
jump in.lmp ensemble

print """
Label pachadi solti, hos garam.
"""

Label pachadi solti, hos garam.

variable T equal 3700-6*100
# variable T equal 4950

reset_timestep 0
fix 1 all npt temp $T $T $(dt*100) iso $P $P $(dt*1000)
fix 1 all npt temp 3100 $T $(dt*100) iso $P $P $(dt*1000)
fix 1 all npt temp 3100 3100 $(dt*100) iso $P $P $(dt*1000)
fix 1 all npt temp 3100 3100 0.10000000000000000555 iso $P $P $(dt*1000)
fix 1 all npt temp 3100 3100 0.10000000000000000555 iso 1000000 $P $(dt*1000)
fix 1 all npt temp 3100 3100 0.10000000000000000555 iso 1000000 1000000 $(dt*1000)
fix 1 all npt temp 3100 3100 0.10000000000000000555 iso 1000000 1000000 1
print """
<--------------------------------------------------------------------->
<------------------ Equilibrating at temperature $T ----------------->
<--------------------------------------------------------------------->
"""

<--------------------------------------------------------------------->
<------------------ Equilibrating at temperature 3100 ----------------->
<--------------------------------------------------------------------->

run 250000
Last active /omp style is pair_style eam/alloy/omp
Step Temp Volume Press KinEng PotEng Density
0     3201.628    18337.327    993082.69    847.13642   -6904.5413    10.929531
Averages over the last 126 of 251 rows, steps 125000 to 250000:
Temp Volume Press KinEng PotEng Density
3089.15 18296.5 996190 817.376 -6915.24 10.954
Loop time of 581.997 on 8 procs for 250000 steps with 2048 atoms

# fix 132 all momentum 100 linear 1 1 1 angular

# dump 3 all custom 1000 traj_npt_new.lammpstrj id type x y z
run 50000
Last active /omp style is pair_style eam/alloy/omp
Step Temp Volume Press KinEng PotEng Density
250000    3120.8057    18263.016    1008715.8    825.75121    -6885.653    10.974003
Averages over the last 26 of 51 rows, steps 275000 to 300000:
Temp Volume Press KinEng PotEng Density
3087.88 18279.7 1.00127e+06 817.039 -6905.21 10.9641
Loop time of 120.709 on 8 procs for 50000 steps with 2048 atoms

unfix temp
unfix out_file_1

write_data after_cooling_press_$P_$T.in
write_data after_cooling_press_1000000_$T.in
write_data after_cooling_press_1000000_3100.in
System init for write_data ...
Last active /omp style is pair_style eam/alloy/omp
write_restart after_cooling_press_$P_$T.lmp
write_restart after_cooling_press_1000000_$T.lmp
write_restart after_cooling_press_1000000_3100.lmp
System init for write_restart ...
Last active /omp style is pair_style eam/alloy/omp

next loopVar  #<----->
jump in.lmp ensemble
