LAMMPS (29 Oct 2020)
package omp 0
using multi-threaded neighbor list subroutines
package omp 2
set 2 OpenMP thread(s) per MPI task
using multi-threaded neighbor list subroutines
# units metal  #<----->
# dimension 3
# boundary p p p

# lattice fcc 3.5440
# region box block 0 8 0 8 0 8 units lattice
# create_box 1 box
# create_atoms 1 box

# read_restart after_heating_press_1000000_5300.lmp  #<----->
read_restart after_cooling_press_1000000_3100.lmp
Reading restart file ...
  restart file = 29 Oct 2020, LAMMPS = 29 Oct 2020
  restoring atom style atomic from restart
  orthogonal box = (1.0154563 1.0154563 1.0154563) to (27.336544 27.336544 27.336544)
  pair style eam/alloy/omp stores no restart info
  2048 atoms
  read_restart CPU = 0.001 seconds

variable P equal 1000000     #<----->
variable dt equal 0.001
variable loopVar loop 3
variable sys_press equal "press/10000"

# variable sim string "heating"  #<----->
variable sim string "cooling"

pair_style eam/alloy
pair_coeff * * Co_Zhou04.eam.alloy Co
Reading eam/alloy potential file Co_Zhou04.eam.alloy with DATE: 2018-03-30

neighbor 2 bin
neigh_modify every 10 check yes

thermo 1000
thermo_style custom step temp vol press ke pe density

timestep $(dt)
timestep 0.0010000000000000000208

# velocity all create 4700 123123 #<----->

print """
yo aagadi
"""

yo aagadi

label ensemble

print """
Label pachadi solti, hos garam.
"""

Label pachadi solti, hos garam.

variable T equal 2850

reset_timestep 0
fix 1 all npt temp $T $T $(dt*100) iso $P $P $(dt*1000)
fix 1 all npt temp 2850 $T $(dt*100) iso $P $P $(dt*1000)
fix 1 all npt temp 2850 2850 $(dt*100) iso $P $P $(dt*1000)
fix 1 all npt temp 2850 2850 0.10000000000000000555 iso $P $P $(dt*1000)
fix 1 all npt temp 2850 2850 0.10000000000000000555 iso 1000000 $P $(dt*1000)
fix 1 all npt temp 2850 2850 0.10000000000000000555 iso 1000000 1000000 $(dt*1000)
fix 1 all npt temp 2850 2850 0.10000000000000000555 iso 1000000 1000000 1
  fix style: npt/omp, fix ID: 1
print """
<--------------------------------------------------------------------->
<------------------ Equilibrating at temperature $T ----------------->
<--------------------------------------------------------------------->
"""

<--------------------------------------------------------------------->
<------------------ Equilibrating at temperature 2850 ----------------->
<--------------------------------------------------------------------->

run 250000
All restart file global fix info was re-assigned
Last active /omp style is pair_style eam/alloy/omp
  update every 10 steps, delay 10 steps, check yes
Step Temp Volume Press KinEng PotEng Density
0    3120.0229     18235.24    1017785.7    825.54407   -6868.2883    10.990718
Averages over the last 126 of 251 rows, steps 125000 to 250000:
Temp Volume Press KinEng PotEng Density
2843.38 18197.2 1.00123e+06 752.346 -6960.78 11.0137
Loop time of 548.176 on 8 procs for 250000 steps with 2048 atoms

# fix 132 all momentum 100 linear 1 1 1 angular

# dump 3 all custom 1000 traj_npt_new.lammpstrj id type x y z
run 50000
Last active /omp style is pair_style eam/alloy/omp
Step Temp Volume Press KinEng PotEng Density
250000    2938.9944    18221.928    997425.36    777.64475   -6962.9968    10.998747
Averages over the last 26 of 51 rows, steps 275000 to 300000:
Temp Volume Press KinEng PotEng Density
2844.75 18207.9 998917 752.708 -6963.16 11.0073
Loop time of 113.769 on 8 procs for 50000 steps with 2048 atoms

unfix temp
unfix out_file_1

write_data after_cooling_press_$P_$T.in
write_data after_cooling_press_1000000_$T.in
write_data after_cooling_press_1000000_2850.in
System init for write_data ...
Last active /omp style is pair_style eam/alloy/omp
write_restart after_cooling_press_$P_$T.lmp
write_restart after_cooling_press_1000000_$T.lmp
write_restart after_cooling_press_1000000_2850.lmp
System init for write_restart ...
Last active /omp style is pair_style eam/alloy/omp

# next loopVar  #<----->
# jump in.lmp ensemble
