LAMMPS (19 Mar 2020)
package omp 0
using multi-threaded neighbor list subroutines
package omp 4
set 4 OpenMP thread(s) per MPI task
using multi-threaded neighbor list subroutines

read_restart after_two_phase_equil.lmp
  restoring atom style atomic from restart
  orthogonal box = (0.0442 0.0442 0.0884001) to (17.2832 17.2832 34.5664)
  pair style eam/alloy/omp stores no restart info
  864 atoms
  read_restart CPU = 0.0013536 secs

reset_timestep 0
region left_cold block INF INF INF INF INF 17.28 units box
region right_hot block INF INF INF INF 17.28 INF units lattice
# region middle_cold block INF INF INF INF 3 9 units lattice

# #  2 6 units lattice
# region hot union 2 left_hot right_hot
group cold_atoms region left_cold
468 atoms in group cold_atoms
group hot_atoms region right_hot
445 atoms in group hot_atoms

variable dt equal 0.001

pair_style eam/alloy
pair_coeff * * Mishin-Ni-Al-2009.eam.alloy Ni Al

# velocity all create 300 546445435 mom yes rot yes dist gaussian
# min_style cg
# minimize 1e-25 1e-25 100000 500000

# variable T equal 1400

# run 0
# neighbor 2 bin

# neigh_modify every 10 check yes
reset_timestep 0
fix 1 hot_atoms npt temp 1000 2400 $(dt*100) iso 0 0 $(dt*1000)
fix 1 hot_atoms npt temp 1000 2400 0.10000000000000000555 iso 0 0 $(dt*1000)
fix 1 hot_atoms npt temp 1000 2400 0.10000000000000000555 iso 0 0 1
  fix style: npt/omp, fix ID: 1

# compute sys_pressure all pressure

variable sys_press equal "press/10000"
thermo 1000
thermo_style custom step temp vol press ke pe density v_sys_press
# variable s equal "vol"
# print "vol"
# thermo_modify press v_pressure

dump 3 all custom 1000 output.lammpstrj id type x y z

run 500000
All restart file global fix info was re-assigned
Last active /omp style is pair_style eam/alloy/omp
  update every 1 steps, delay 10 steps, check yes
Step Temp Volume Press KinEng PotEng Density v_sys_press
0    972.40054    10246.301    698.15634    108.47274   -3773.6495    5.9993746  0.069815634
Averages over the last 251 of 501 rows, steps 250000 to 500000:
Temp Volume Press KinEng PotEng Density v_sys_press
2046.21 11159.5 -647.469 228.258 -3516.29 5.51315 -0.0647469
Loop time of 1986.05 on 8 procs for 500000 steps with 864 atoms

compute z_chunk all chunk/atom bin/1d z lower 0.7 units box
fix 14 all ave/chunk 500000 1 500000 z_chunk density/number file num_density_heating_right_2400.txt

run 0
Last active /omp style is pair_style eam/alloy/omp
Step Temp Volume Press KinEng PotEng Density v_sys_press
500000    2433.7297    11454.288    909.37968    271.48621   -3429.5818    5.3666711  0.090937968
Loop time of 1.65001e-06 on 8 procs for 0 steps with 864 atoms

write_data after_heating_right_2400.in
Last active /omp style is pair_style eam/alloy/omp
write_restart after_heating_right_2400.lmp
Last active /omp style is pair_style eam/alloy/omp

# dump 3 all custom 1000 traj_npt_new.lammpstrj id type x y z
# # dump_modify 3 element Ni Al

# run 500000

# write_data after_two_phase_equil.in
# write_restart after_two_phase_equil.lmp

# write_data temp.data
# create_box 1 box
# create_atoms 2 box args mol values

# # read_restart after_heating.lmp

# variable x equal

# variable P equal 0
# variable dt equal 0.001
# # variable loopVar loop 8

# region left_hot block 0 3 0 3 0 2 units lattic
# region cold block
# # print "step temp vol pe" file heating.txt screen no

# pair_style eam/alloy
# pair_coeff * * Mishin-Ni-Al-2009.eam.alloy Ni Al

# # velocity all create 300 123123

# # fix 2 all nve
# # run 1000
# # unfix 2

# neighbor 2 bin
# neigh_modify every 10 check yes

# timestep $(dt)

# # dump_modify 1 append yes
# dump 3 all custom 10000 traj_npt_new.lammpstrj id type x y z

# thermo 1000
# thermo_style custom step temp vol press ke pe density

# label ensemble
# reset_timestep 0

# fix 1 all npt temp $T $T $(dt*100) iso 0 0 $(dt*1000)
# print """
# <--------------------------------------------------------------------->
# <------------------ Equilibrating at temperature $T ----------------->
# <--------------------------------------------------------------------->
# """
# fix temp all print 100 "$(step) $(temp) $(press) $(vol) $(ke) $(pe) $(density)" file temp.txt screen no title  "step temp press vol ke pe density"
# run 250000
# fix out_file_1 all print 1000 "$(step) $(temp) $(press) $(vol) $(ke) $(pe) $(density)" file heating_$T.txt screen no title  "step temp press vol ke pe density"

# run 100000
# unfix out_file_1
# unfix 1
# # # clear
# # next loopVar
# # # thermo_modify flush yes
# # jump in.lmp ensemble
