LAMMPS (29 Oct 2020)
package omp 0
using multi-threaded neighbor list subroutines
package omp 2
set 2 OpenMP thread(s) per MPI task
using multi-threaded neighbor list subroutines
units metal  #<----->
dimension 3
boundary p p p

lattice fcc 3.5440
Lattice spacing in x,y,z = 3.5440000 3.5440000 3.5440000
region box block 0 8 0 8 0 8 units lattice
create_box 1 box
Created orthogonal box = (0.0000000 0.0000000 0.0000000) to (28.352000 28.352000 28.352000)
create_atoms 1 box
Created 2048 atoms

# # read_restart after_heating_press_300000_3600.lmp  #<----->
# read_restart after_cooling_press_300000_1850.lmp

variable P equal 500000
variable dt equal 0.001
variable loopVar loop 6
variable sys_press equal "press/10000"

variable sim string "heating"  #<----->
# variable sim string "cooling"

pair_style eam/alloy
pair_coeff * * Co_Zhou04.eam.alloy Co
Reading eam/alloy potential file Co_Zhou04.eam.alloy with DATE: 2018-03-30

neighbor 2 bin
neigh_modify every 10 check yes

thermo 1000
thermo_style custom step temp vol press ke pe density

timestep $(dt)
timestep 0.0010000000000000000208

velocity all create 3400 123123 #<----->

print """
yo aagadi
"""

yo aagadi

label ensemble

print """
Label pachadi solti, hos garam.
"""

Label pachadi solti, hos garam.

variable T equal 3300+1*100
# variable T equal 1850

reset_timestep 0
fix 1 all npt temp $T $T $(dt*100) iso $P $P $(dt*1000)
fix 1 all npt temp 3400 $T $(dt*100) iso $P $P $(dt*1000)
fix 1 all npt temp 3400 3400 $(dt*100) iso $P $P $(dt*1000)
fix 1 all npt temp 3400 3400 0.10000000000000000555 iso $P $P $(dt*1000)
fix 1 all npt temp 3400 3400 0.10000000000000000555 iso 500000 $P $(dt*1000)
fix 1 all npt temp 3400 3400 0.10000000000000000555 iso 500000 500000 $(dt*1000)
fix 1 all npt temp 3400 3400 0.10000000000000000555 iso 500000 500000 1
print """
<--------------------------------------------------------------------->
<------------------ Equilibrating at temperature $T ----------------->
<--------------------------------------------------------------------->
"""

<--------------------------------------------------------------------->
<------------------ Equilibrating at temperature 3400 ----------------->
<--------------------------------------------------------------------->

run 250000
Last active /omp style is pair_style eam/alloy/omp
  update every 10 steps, delay 10 steps, check yes
Step Temp Volume Press KinEng PotEng Density
0         3400    22790.356    49843.003    899.62476    -9015.757        8.794
Averages over the last 126 of 251 rows, steps 125000 to 250000:
Temp Volume Press KinEng PotEng Density
3395.23 20419.3 499809 898.362 -7900.75 9.8152
Loop time of 526.557 on 8 procs for 250000 steps with 2048 atoms

# fix 132 all momentum 100 linear 1 1 1 angular

# dump 3 all custom 1000 traj_npt_new.lammpstrj id type x y z
run 50000
Last active /omp style is pair_style eam/alloy/omp
Step Temp Volume Press KinEng PotEng Density
250000    3429.3435    20409.124    498591.97    907.38893    -7917.926    9.8200387
Averages over the last 26 of 51 rows, steps 275000 to 300000:
Temp Volume Press KinEng PotEng Density
3395.61 20413.2 500527 898.463 -7900.74 9.81814
Loop time of 108.847 on 8 procs for 50000 steps with 2048 atoms

unfix temp
unfix out_file_1

write_data after_heating_press_$P_$T.in
write_data after_heating_press_500000_$T.in
write_data after_heating_press_500000_3400.in
System init for write_data ...
Last active /omp style is pair_style eam/alloy/omp
write_restart after_heating_press_$P_$T.lmp
write_restart after_heating_press_500000_$T.lmp
write_restart after_heating_press_500000_3400.lmp
System init for write_restart ...
Last active /omp style is pair_style eam/alloy/omp

next loopVar  #<----->
jump in.lmp ensemble

print """
Label pachadi solti, hos garam.
"""

Label pachadi solti, hos garam.

variable T equal 3300+2*100
# variable T equal 1850

reset_timestep 0
fix 1 all npt temp $T $T $(dt*100) iso $P $P $(dt*1000)
fix 1 all npt temp 3500 $T $(dt*100) iso $P $P $(dt*1000)
fix 1 all npt temp 3500 3500 $(dt*100) iso $P $P $(dt*1000)
fix 1 all npt temp 3500 3500 0.10000000000000000555 iso $P $P $(dt*1000)
fix 1 all npt temp 3500 3500 0.10000000000000000555 iso 500000 $P $(dt*1000)
fix 1 all npt temp 3500 3500 0.10000000000000000555 iso 500000 500000 $(dt*1000)
fix 1 all npt temp 3500 3500 0.10000000000000000555 iso 500000 500000 1
print """
<--------------------------------------------------------------------->
<------------------ Equilibrating at temperature $T ----------------->
<--------------------------------------------------------------------->
"""

<--------------------------------------------------------------------->
<------------------ Equilibrating at temperature 3500 ----------------->
<--------------------------------------------------------------------->

run 250000
Last active /omp style is pair_style eam/alloy/omp
Step Temp Volume Press KinEng PotEng Density
0    3307.7714    20354.779    504937.51    875.22147   -7904.2113    9.8462569
Averages over the last 126 of 251 rows, steps 125000 to 250000:
Temp Volume Press KinEng PotEng Density
3500.5 20470 500002 926.216 -7877.39 9.79092
Loop time of 530.966 on 8 procs for 250000 steps with 2048 atoms

# fix 132 all momentum 100 linear 1 1 1 angular

# dump 3 all custom 1000 traj_npt_new.lammpstrj id type x y z
run 50000
Last active /omp style is pair_style eam/alloy/omp
Step Temp Volume Press KinEng PotEng Density
250000    3377.2829    20490.474    497414.21    893.61392   -7867.7181    9.7810518
Averages over the last 26 of 51 rows, steps 275000 to 300000:
Temp Volume Press KinEng PotEng Density
3496.02 20473.4 499976 925.031 -7875.28 9.78927
Loop time of 106.299 on 8 procs for 50000 steps with 2048 atoms

unfix temp
unfix out_file_1

write_data after_heating_press_$P_$T.in
write_data after_heating_press_500000_$T.in
write_data after_heating_press_500000_3500.in
System init for write_data ...
Last active /omp style is pair_style eam/alloy/omp
write_restart after_heating_press_$P_$T.lmp
write_restart after_heating_press_500000_$T.lmp
write_restart after_heating_press_500000_3500.lmp
System init for write_restart ...
Last active /omp style is pair_style eam/alloy/omp

next loopVar  #<----->
jump in.lmp ensemble

print """
Label pachadi solti, hos garam.
"""

Label pachadi solti, hos garam.

variable T equal 3300+3*100
# variable T equal 1850

reset_timestep 0
fix 1 all npt temp $T $T $(dt*100) iso $P $P $(dt*1000)
fix 1 all npt temp 3600 $T $(dt*100) iso $P $P $(dt*1000)
fix 1 all npt temp 3600 3600 $(dt*100) iso $P $P $(dt*1000)
fix 1 all npt temp 3600 3600 0.10000000000000000555 iso $P $P $(dt*1000)
fix 1 all npt temp 3600 3600 0.10000000000000000555 iso 500000 $P $(dt*1000)
fix 1 all npt temp 3600 3600 0.10000000000000000555 iso 500000 500000 $(dt*1000)
fix 1 all npt temp 3600 3600 0.10000000000000000555 iso 500000 500000 1
print """
<--------------------------------------------------------------------->
<------------------ Equilibrating at temperature $T ----------------->
<--------------------------------------------------------------------->
"""

<--------------------------------------------------------------------->
<------------------ Equilibrating at temperature 3600 ----------------->
<--------------------------------------------------------------------->

run 250000
Last active /omp style is pair_style eam/alloy/omp
Step Temp Volume Press KinEng PotEng Density
0    3479.5593    20416.459    502775.17    920.67579   -7890.1756    9.8165104
Averages over the last 126 of 251 rows, steps 125000 to 250000:
Temp Volume Press KinEng PotEng Density
3600.45 20531.4 500007 952.664 -7848.9 9.76164
Loop time of 536.277 on 8 procs for 250000 steps with 2048 atoms

# fix 132 all momentum 100 linear 1 1 1 angular

# dump 3 all custom 1000 traj_npt_new.lammpstrj id type x y z
run 50000
Last active /omp style is pair_style eam/alloy/omp
Step Temp Volume Press KinEng PotEng Density
250000      3637.21    20552.507    504522.32    962.38945   -7814.5383      9.75153
Averages over the last 26 of 51 rows, steps 275000 to 300000:
Temp Volume Press KinEng PotEng Density
3589.15 20528 501169 949.672 -7844.58 9.76324
Loop time of 106.223 on 8 procs for 50000 steps with 2048 atoms

unfix temp
unfix out_file_1

write_data after_heating_press_$P_$T.in
write_data after_heating_press_500000_$T.in
write_data after_heating_press_500000_3600.in
System init for write_data ...
Last active /omp style is pair_style eam/alloy/omp
write_restart after_heating_press_$P_$T.lmp
write_restart after_heating_press_500000_$T.lmp
write_restart after_heating_press_500000_3600.lmp
System init for write_restart ...
Last active /omp style is pair_style eam/alloy/omp

next loopVar  #<----->
jump in.lmp ensemble

print """
Label pachadi solti, hos garam.
"""

Label pachadi solti, hos garam.

variable T equal 3300+4*100
# variable T equal 1850

reset_timestep 0
fix 1 all npt temp $T $T $(dt*100) iso $P $P $(dt*1000)
fix 1 all npt temp 3700 $T $(dt*100) iso $P $P $(dt*1000)
fix 1 all npt temp 3700 3700 $(dt*100) iso $P $P $(dt*1000)
fix 1 all npt temp 3700 3700 0.10000000000000000555 iso $P $P $(dt*1000)
fix 1 all npt temp 3700 3700 0.10000000000000000555 iso 500000 $P $(dt*1000)
fix 1 all npt temp 3700 3700 0.10000000000000000555 iso 500000 500000 $(dt*1000)
fix 1 all npt temp 3700 3700 0.10000000000000000555 iso 500000 500000 1
print """
<--------------------------------------------------------------------->
<------------------ Equilibrating at temperature $T ----------------->
<--------------------------------------------------------------------->
"""

<--------------------------------------------------------------------->
<------------------ Equilibrating at temperature 3700 ----------------->
<--------------------------------------------------------------------->

run 250000
Last active /omp style is pair_style eam/alloy/omp
Step Temp Volume Press KinEng PotEng Density
0    3591.9068    20463.941    509440.49    950.40243   -7840.6063    9.7937334
Averages over the last 126 of 251 rows, steps 125000 to 250000:
Temp Volume Press KinEng PotEng Density
3695.34 20595.7 500204 977.77 -7818.36 9.73119
Loop time of 539.961 on 8 procs for 250000 steps with 2048 atoms

# fix 132 all momentum 100 linear 1 1 1 angular

# dump 3 all custom 1000 traj_npt_new.lammpstrj id type x y z
run 50000
Last active /omp style is pair_style eam/alloy/omp
Step Temp Volume Press KinEng PotEng Density
250000    3663.6014    20692.495    486467.13     969.3725   -7834.6809    9.6855594
Averages over the last 26 of 51 rows, steps 275000 to 300000:
Temp Volume Press KinEng PotEng Density
3693.88 20589.1 499262 977.383 -7825.6 9.7343
Loop time of 107.162 on 8 procs for 50000 steps with 2048 atoms

unfix temp
unfix out_file_1

write_data after_heating_press_$P_$T.in
write_data after_heating_press_500000_$T.in
write_data after_heating_press_500000_3700.in
System init for write_data ...
Last active /omp style is pair_style eam/alloy/omp
write_restart after_heating_press_$P_$T.lmp
write_restart after_heating_press_500000_$T.lmp
write_restart after_heating_press_500000_3700.lmp
System init for write_restart ...
Last active /omp style is pair_style eam/alloy/omp

next loopVar  #<----->
jump in.lmp ensemble

print """
Label pachadi solti, hos garam.
"""

Label pachadi solti, hos garam.

variable T equal 3300+5*100
# variable T equal 1850

reset_timestep 0
fix 1 all npt temp $T $T $(dt*100) iso $P $P $(dt*1000)
fix 1 all npt temp 3800 $T $(dt*100) iso $P $P $(dt*1000)
fix 1 all npt temp 3800 3800 $(dt*100) iso $P $P $(dt*1000)
fix 1 all npt temp 3800 3800 0.10000000000000000555 iso $P $P $(dt*1000)
fix 1 all npt temp 3800 3800 0.10000000000000000555 iso 500000 $P $(dt*1000)
fix 1 all npt temp 3800 3800 0.10000000000000000555 iso 500000 500000 $(dt*1000)
fix 1 all npt temp 3800 3800 0.10000000000000000555 iso 500000 500000 1
print """
<--------------------------------------------------------------------->
<------------------ Equilibrating at temperature $T ----------------->
<--------------------------------------------------------------------->
"""

<--------------------------------------------------------------------->
<------------------ Equilibrating at temperature 3800 ----------------->
<--------------------------------------------------------------------->

run 250000
Last active /omp style is pair_style eam/alloy/omp
Step Temp Volume Press KinEng PotEng Density
0    3625.8263    20598.307     497604.2    959.37738   -7822.9958    9.7298473
Averages over the last 126 of 251 rows, steps 125000 to 250000:
Temp Volume Press KinEng PotEng Density
3801.37 21190.6 500181 1005.83 -7502.7 9.45795
Loop time of 521.157 on 8 procs for 250000 steps with 2048 atoms

# fix 132 all momentum 100 linear 1 1 1 angular

# dump 3 all custom 1000 traj_npt_new.lammpstrj id type x y z
run 50000
Last active /omp style is pair_style eam/alloy/omp
Step Temp Volume Press KinEng PotEng Density
250000    3847.3756    21122.977     509988.3    1017.9983   -7488.1588    9.4881694
Averages over the last 26 of 51 rows, steps 275000 to 300000:
Temp Volume Press KinEng PotEng Density
3791.94 21185.2 501004 1003.33 -7500.29 9.46037
Loop time of 107.263 on 8 procs for 50000 steps with 2048 atoms

unfix temp
unfix out_file_1

write_data after_heating_press_$P_$T.in
write_data after_heating_press_500000_$T.in
write_data after_heating_press_500000_3800.in
System init for write_data ...
Last active /omp style is pair_style eam/alloy/omp
write_restart after_heating_press_$P_$T.lmp
write_restart after_heating_press_500000_$T.lmp
write_restart after_heating_press_500000_3800.lmp
System init for write_restart ...
Last active /omp style is pair_style eam/alloy/omp

next loopVar  #<----->
jump in.lmp ensemble

print """
Label pachadi solti, hos garam.
"""

Label pachadi solti, hos garam.

variable T equal 3300+6*100
# variable T equal 1850

reset_timestep 0
fix 1 all npt temp $T $T $(dt*100) iso $P $P $(dt*1000)
fix 1 all npt temp 3900 $T $(dt*100) iso $P $P $(dt*1000)
fix 1 all npt temp 3900 3900 $(dt*100) iso $P $P $(dt*1000)
fix 1 all npt temp 3900 3900 0.10000000000000000555 iso $P $P $(dt*1000)
fix 1 all npt temp 3900 3900 0.10000000000000000555 iso 500000 $P $(dt*1000)
fix 1 all npt temp 3900 3900 0.10000000000000000555 iso 500000 500000 $(dt*1000)
fix 1 all npt temp 3900 3900 0.10000000000000000555 iso 500000 500000 1
print """
<--------------------------------------------------------------------->
<------------------ Equilibrating at temperature $T ----------------->
<--------------------------------------------------------------------->
"""

<--------------------------------------------------------------------->
<------------------ Equilibrating at temperature 3900 ----------------->
<--------------------------------------------------------------------->

run 250000
Last active /omp style is pair_style eam/alloy/omp
Step Temp Volume Press KinEng PotEng Density
0    3750.9868    21178.232    505059.84     992.4943   -7481.1212    9.4634145
Averages over the last 79 of 157 rows, steps 78000 to 156000:
Temp Volume Press KinEng PotEng Density
3895.77 21244.5 499559 1030.8 -7483.81 9.43398
