LAMMPS (29 Oct 2020)
package omp 0
using multi-threaded neighbor list subroutines
package omp 2
set 2 OpenMP thread(s) per MPI task
using multi-threaded neighbor list subroutines
units metal  #<----->
dimension 3
boundary p p p

lattice fcc 3.5440
Lattice spacing in x,y,z = 3.5440000 3.5440000 3.5440000
region box block 0 8 0 8 0 8 units lattice
create_box 1 box
Created orthogonal box = (0.0000000 0.0000000 0.0000000) to (28.352000 28.352000 28.352000)
create_atoms 1 box
Created 2048 atoms

# # read_restart after_heating_press_300000_3600.lmp  #<----->
# read_restart after_cooling_press_300000_1850.lmp

variable P equal 500000
variable dt equal 0.001
variable loopVar loop 6
variable sys_press equal "press/10000"

variable sim string "heating"  #<----->
# variable sim string "cooling"

pair_style eam/alloy
pair_coeff * * Co_Zhou04.eam.alloy Co
Reading eam/alloy potential file Co_Zhou04.eam.alloy with DATE: 2018-03-30

neighbor 2 bin
neigh_modify every 10 check yes

thermo 1000
thermo_style custom step temp vol press ke pe density

timestep $(dt)
timestep 0.0010000000000000000208

velocity all create 3800 123123 #<----->

print """
yo aagadi
"""

yo aagadi

label ensemble

print """
Label pachadi solti, hos garam.
"""

Label pachadi solti, hos garam.

variable T equal 3700+1*100
# variable T equal 1850

reset_timestep 0
fix 1 all npt temp $T $T $(dt*100) iso $P $P $(dt*1000)
fix 1 all npt temp 3800 $T $(dt*100) iso $P $P $(dt*1000)
fix 1 all npt temp 3800 3800 $(dt*100) iso $P $P $(dt*1000)
fix 1 all npt temp 3800 3800 0.10000000000000000555 iso $P $P $(dt*1000)
fix 1 all npt temp 3800 3800 0.10000000000000000555 iso 500000 $P $(dt*1000)
fix 1 all npt temp 3800 3800 0.10000000000000000555 iso 500000 500000 $(dt*1000)
fix 1 all npt temp 3800 3800 0.10000000000000000555 iso 500000 500000 1
print """
<--------------------------------------------------------------------->
<------------------ Equilibrating at temperature $T ----------------->
<--------------------------------------------------------------------->
"""

<--------------------------------------------------------------------->
<------------------ Equilibrating at temperature 3800 ----------------->
<--------------------------------------------------------------------->

run 250000
Last active /omp style is pair_style eam/alloy/omp
  update every 10 steps, delay 10 steps, check yes
Step Temp Volume Press KinEng PotEng Density
0         3800    22790.356    54803.331     1005.463    -9015.757        8.794
Averages over the last 126 of 251 rows, steps 125000 to 250000:
Temp Volume Press KinEng PotEng Density
3812.34 21187.3 500287 1008.73 -7504.57 9.45945
Loop time of 519.07 on 8 procs for 250000 steps with 2048 atoms

# fix 132 all momentum 100 linear 1 1 1 angular

# dump 3 all custom 1000 traj_npt_new.lammpstrj id type x y z
run 50000
Last active /omp style is pair_style eam/alloy/omp
Step Temp Volume Press KinEng PotEng Density
250000    3748.8413    21193.319    499318.94    991.92659   -7502.7368    9.4566778
Averages over the last 26 of 51 rows, steps 275000 to 300000:
Temp Volume Press KinEng PotEng Density
3783.87 21195.4 499542 1001.19 -7501.85 9.45579
Loop time of 107.269 on 8 procs for 50000 steps with 2048 atoms

unfix temp
unfix out_file_1

write_data after_heating_press_$P_$T.in
write_data after_heating_press_500000_$T.in
write_data after_heating_press_500000_3800.in
System init for write_data ...
Last active /omp style is pair_style eam/alloy/omp
write_restart after_heating_press_$P_$T.lmp
write_restart after_heating_press_500000_$T.lmp
write_restart after_heating_press_500000_3800.lmp
System init for write_restart ...
Last active /omp style is pair_style eam/alloy/omp

next loopVar  #<----->
jump in.lmp ensemble

print """
Label pachadi solti, hos garam.
"""

Label pachadi solti, hos garam.

variable T equal 3700+2*100
# variable T equal 1850

reset_timestep 0
fix 1 all npt temp $T $T $(dt*100) iso $P $P $(dt*1000)
fix 1 all npt temp 3900 $T $(dt*100) iso $P $P $(dt*1000)
fix 1 all npt temp 3900 3900 $(dt*100) iso $P $P $(dt*1000)
fix 1 all npt temp 3900 3900 0.10000000000000000555 iso $P $P $(dt*1000)
fix 1 all npt temp 3900 3900 0.10000000000000000555 iso 500000 $P $(dt*1000)
fix 1 all npt temp 3900 3900 0.10000000000000000555 iso 500000 500000 $(dt*1000)
fix 1 all npt temp 3900 3900 0.10000000000000000555 iso 500000 500000 1
print """
<--------------------------------------------------------------------->
<------------------ Equilibrating at temperature $T ----------------->
<--------------------------------------------------------------------->
"""

<--------------------------------------------------------------------->
<------------------ Equilibrating at temperature 3900 ----------------->
<--------------------------------------------------------------------->

run 250000
Last active /omp style is pair_style eam/alloy/omp
Step Temp Volume Press KinEng PotEng Density
0     3727.995    21141.238    503949.03    986.41076   -7508.1999     9.479974
Averages over the last 126 of 251 rows, steps 125000 to 250000:
Temp Volume Press KinEng PotEng Density
3891.66 21242.5 500261 1029.72 -7481.21 9.43489
Loop time of 527.915 on 8 procs for 250000 steps with 2048 atoms

# fix 132 all momentum 100 linear 1 1 1 angular

# dump 3 all custom 1000 traj_npt_new.lammpstrj id type x y z
run 50000
Last active /omp style is pair_style eam/alloy/omp
Step Temp Volume Press KinEng PotEng Density
250000    4039.2952    21254.289    504724.03    1068.7794   -7465.5223    9.4295501
Averages over the last 26 of 51 rows, steps 275000 to 300000:
Temp Volume Press KinEng PotEng Density
3886.86 21249.2 500257 1028.44 -7477.1 9.43188
Loop time of 110.446 on 8 procs for 50000 steps with 2048 atoms

unfix temp
unfix out_file_1

write_data after_heating_press_$P_$T.in
write_data after_heating_press_500000_$T.in
write_data after_heating_press_500000_3900.in
System init for write_data ...
Last active /omp style is pair_style eam/alloy/omp
write_restart after_heating_press_$P_$T.lmp
write_restart after_heating_press_500000_$T.lmp
write_restart after_heating_press_500000_3900.lmp
System init for write_restart ...
Last active /omp style is pair_style eam/alloy/omp

next loopVar  #<----->
jump in.lmp ensemble

print """
Label pachadi solti, hos garam.
"""

Label pachadi solti, hos garam.

variable T equal 3700+3*100
# variable T equal 1850

reset_timestep 0
fix 1 all npt temp $T $T $(dt*100) iso $P $P $(dt*1000)
fix 1 all npt temp 4000 $T $(dt*100) iso $P $P $(dt*1000)
fix 1 all npt temp 4000 4000 $(dt*100) iso $P $P $(dt*1000)
fix 1 all npt temp 4000 4000 0.10000000000000000555 iso $P $P $(dt*1000)
fix 1 all npt temp 4000 4000 0.10000000000000000555 iso 500000 $P $(dt*1000)
fix 1 all npt temp 4000 4000 0.10000000000000000555 iso 500000 500000 $(dt*1000)
fix 1 all npt temp 4000 4000 0.10000000000000000555 iso 500000 500000 1
print """
<--------------------------------------------------------------------->
<------------------ Equilibrating at temperature $T ----------------->
<--------------------------------------------------------------------->
"""

<--------------------------------------------------------------------->
<------------------ Equilibrating at temperature 4000 ----------------->
<--------------------------------------------------------------------->

run 250000
Last active /omp style is pair_style eam/alloy/omp
Step Temp Volume Press KinEng PotEng Density
0    3978.5606    21308.176    493928.59    1052.7093   -7492.1123    9.4057036
Averages over the last 126 of 251 rows, steps 125000 to 250000:
Temp Volume Press KinEng PotEng Density
3996.43 21288.3 500550 1057.44 -7462.76 9.41458
Loop time of 525.066 on 8 procs for 250000 steps with 2048 atoms

# fix 132 all momentum 100 linear 1 1 1 angular

# dump 3 all custom 1000 traj_npt_new.lammpstrj id type x y z
run 50000
Last active /omp style is pair_style eam/alloy/omp
Step Temp Volume Press KinEng PotEng Density
250000    3972.5518    21309.129    498562.38    1051.1194   -7452.8404    9.4052828
Averages over the last 26 of 51 rows, steps 275000 to 300000:
Temp Volume Press KinEng PotEng Density
3984.21 21292.5 499920 1054.21 -7462.69 9.41269
Loop time of 107.121 on 8 procs for 50000 steps with 2048 atoms

unfix temp
unfix out_file_1

write_data after_heating_press_$P_$T.in
write_data after_heating_press_500000_$T.in
write_data after_heating_press_500000_4000.in
System init for write_data ...
Last active /omp style is pair_style eam/alloy/omp
write_restart after_heating_press_$P_$T.lmp
write_restart after_heating_press_500000_$T.lmp
write_restart after_heating_press_500000_4000.lmp
System init for write_restart ...
Last active /omp style is pair_style eam/alloy/omp

next loopVar  #<----->
jump in.lmp ensemble

print """
Label pachadi solti, hos garam.
"""

Label pachadi solti, hos garam.

variable T equal 3700+4*100
# variable T equal 1850

reset_timestep 0
fix 1 all npt temp $T $T $(dt*100) iso $P $P $(dt*1000)
fix 1 all npt temp 4100 $T $(dt*100) iso $P $P $(dt*1000)
fix 1 all npt temp 4100 4100 $(dt*100) iso $P $P $(dt*1000)
fix 1 all npt temp 4100 4100 0.10000000000000000555 iso $P $P $(dt*1000)
fix 1 all npt temp 4100 4100 0.10000000000000000555 iso 500000 $P $(dt*1000)
fix 1 all npt temp 4100 4100 0.10000000000000000555 iso 500000 500000 $(dt*1000)
fix 1 all npt temp 4100 4100 0.10000000000000000555 iso 500000 500000 1
print """
<--------------------------------------------------------------------->
<------------------ Equilibrating at temperature $T ----------------->
<--------------------------------------------------------------------->
"""

<--------------------------------------------------------------------->
<------------------ Equilibrating at temperature 4100 ----------------->
<--------------------------------------------------------------------->

run 250000
Last active /omp style is pair_style eam/alloy/omp
Step Temp Volume Press KinEng PotEng Density
0    4060.5007    21354.296    501755.16    1074.3903    -7435.398    9.3853894
Averages over the last 126 of 251 rows, steps 125000 to 250000:
Temp Volume Press KinEng PotEng Density
4100.19 21333.4 501217 1084.89 -7442.95 9.39466
Loop time of 528.938 on 8 procs for 250000 steps with 2048 atoms

# fix 132 all momentum 100 linear 1 1 1 angular

# dump 3 all custom 1000 traj_npt_new.lammpstrj id type x y z
run 50000
Last active /omp style is pair_style eam/alloy/omp
Step Temp Volume Press KinEng PotEng Density
250000    4173.4001    21309.656    502740.27    1104.2629   -7450.5197    9.4050503
Averages over the last 26 of 51 rows, steps 275000 to 300000:
Temp Volume Press KinEng PotEng Density
4122.62 21337.1 501210 1090.83 -7442.51 9.39304
Loop time of 104.627 on 8 procs for 50000 steps with 2048 atoms

unfix temp
unfix out_file_1

write_data after_heating_press_$P_$T.in
write_data after_heating_press_500000_$T.in
write_data after_heating_press_500000_4100.in
System init for write_data ...
Last active /omp style is pair_style eam/alloy/omp
write_restart after_heating_press_$P_$T.lmp
write_restart after_heating_press_500000_$T.lmp
write_restart after_heating_press_500000_4100.lmp
System init for write_restart ...
Last active /omp style is pair_style eam/alloy/omp

next loopVar  #<----->
jump in.lmp ensemble

print """
Label pachadi solti, hos garam.
"""

Label pachadi solti, hos garam.

variable T equal 3700+5*100
# variable T equal 1850

reset_timestep 0
fix 1 all npt temp $T $T $(dt*100) iso $P $P $(dt*1000)
fix 1 all npt temp 4200 $T $(dt*100) iso $P $P $(dt*1000)
fix 1 all npt temp 4200 4200 $(dt*100) iso $P $P $(dt*1000)
fix 1 all npt temp 4200 4200 0.10000000000000000555 iso $P $P $(dt*1000)
fix 1 all npt temp 4200 4200 0.10000000000000000555 iso 500000 $P $(dt*1000)
fix 1 all npt temp 4200 4200 0.10000000000000000555 iso 500000 500000 $(dt*1000)
fix 1 all npt temp 4200 4200 0.10000000000000000555 iso 500000 500000 1
print """
<--------------------------------------------------------------------->
<------------------ Equilibrating at temperature $T ----------------->
<--------------------------------------------------------------------->
"""

<--------------------------------------------------------------------->
<------------------ Equilibrating at temperature 4200 ----------------->
<--------------------------------------------------------------------->

run 250000
Last active /omp style is pair_style eam/alloy/omp
Step Temp Volume Press KinEng PotEng Density
0     4182.732    21356.509    497536.38    1106.7321   -7454.9848     9.384417
Averages over the last 126 of 251 rows, steps 125000 to 250000:
Temp Volume Press KinEng PotEng Density
4207.32 21391.7 500853 1113.24 -7422.91 9.36907
Loop time of 525.059 on 8 procs for 250000 steps with 2048 atoms

# fix 132 all momentum 100 linear 1 1 1 angular

# dump 3 all custom 1000 traj_npt_new.lammpstrj id type x y z
run 50000
Last active /omp style is pair_style eam/alloy/omp
Step Temp Volume Press KinEng PotEng Density
250000    4154.4777    21339.252    503676.86    1099.2562   -7429.3391    9.3920064
Averages over the last 26 of 51 rows, steps 275000 to 300000:
Temp Volume Press KinEng PotEng Density
4208.66 21384.2 501797 1113.59 -7421.05 9.37235
Loop time of 104.445 on 8 procs for 50000 steps with 2048 atoms

unfix temp
unfix out_file_1

write_data after_heating_press_$P_$T.in
write_data after_heating_press_500000_$T.in
write_data after_heating_press_500000_4200.in
System init for write_data ...
Last active /omp style is pair_style eam/alloy/omp
write_restart after_heating_press_$P_$T.lmp
write_restart after_heating_press_500000_$T.lmp
write_restart after_heating_press_500000_4200.lmp
System init for write_restart ...
Last active /omp style is pair_style eam/alloy/omp

next loopVar  #<----->
jump in.lmp ensemble

print """
Label pachadi solti, hos garam.
"""

Label pachadi solti, hos garam.

variable T equal 3700+6*100
# variable T equal 1850

reset_timestep 0
fix 1 all npt temp $T $T $(dt*100) iso $P $P $(dt*1000)
fix 1 all npt temp 4300 $T $(dt*100) iso $P $P $(dt*1000)
fix 1 all npt temp 4300 4300 $(dt*100) iso $P $P $(dt*1000)
fix 1 all npt temp 4300 4300 0.10000000000000000555 iso $P $P $(dt*1000)
fix 1 all npt temp 4300 4300 0.10000000000000000555 iso 500000 $P $(dt*1000)
fix 1 all npt temp 4300 4300 0.10000000000000000555 iso 500000 500000 $(dt*1000)
fix 1 all npt temp 4300 4300 0.10000000000000000555 iso 500000 500000 1
print """
<--------------------------------------------------------------------->
<------------------ Equilibrating at temperature $T ----------------->
<--------------------------------------------------------------------->
"""

<--------------------------------------------------------------------->
<------------------ Equilibrating at temperature 4300 ----------------->
<--------------------------------------------------------------------->

run 250000
Last active /omp style is pair_style eam/alloy/omp
Step Temp Volume Press KinEng PotEng Density
0    4062.8018    21422.036    491957.03    1074.9991   -7438.4022    9.3557115
Averages over the last 126 of 251 rows, steps 125000 to 250000:
Temp Volume Press KinEng PotEng Density
4303.12 21450.1 500318 1138.59 -7401.79 9.34359
Loop time of 512.806 on 8 procs for 250000 steps with 2048 atoms

# fix 132 all momentum 100 linear 1 1 1 angular

# dump 3 all custom 1000 traj_npt_new.lammpstrj id type x y z
run 50000
Last active /omp style is pair_style eam/alloy/omp
Step Temp Volume Press KinEng PotEng Density
250000    4312.6572    21459.625    496432.36    1141.1097   -7415.0631    9.3393239
Averages over the last 26 of 51 rows, steps 275000 to 300000:
Temp Volume Press KinEng PotEng Density
4273.59 21459.5 499060 1130.77 -7401.85 9.33948
Loop time of 105.806 on 8 procs for 50000 steps with 2048 atoms

unfix temp
unfix out_file_1

write_data after_heating_press_$P_$T.in
write_data after_heating_press_500000_$T.in
write_data after_heating_press_500000_4300.in
System init for write_data ...
Last active /omp style is pair_style eam/alloy/omp
write_restart after_heating_press_$P_$T.lmp
write_restart after_heating_press_500000_$T.lmp
write_restart after_heating_press_500000_4300.lmp
System init for write_restart ...
Last active /omp style is pair_style eam/alloy/omp

next loopVar  #<----->
jump in.lmp ensemble
