LAMMPS (29 Oct 2020)
package omp 0
using multi-threaded neighbor list subroutines
package omp 2
set 2 OpenMP thread(s) per MPI task
using multi-threaded neighbor list subroutines
units metal
dimension 3
boundary p p p

lattice fcc 3.5440
Lattice spacing in x,y,z = 3.5440000 3.5440000 3.5440000
region box block 0 7 0 7 0 7 units lattice
create_box 1 box
Created orthogonal box = (0.0000000 0.0000000 0.0000000) to (24.808000 24.808000 24.808000)

read_data _solid_400.in add append shift 0 0 3
Reading data file ...
  orthogonal box = (-0.077517821 -0.077517821 0.0000000) to (24.885518 24.885518 27.885518)
  reading atoms ...
  1372 atoms
  reading velocities ...
  1372 velocities

read_data liquid_6000.in add append shift 0 0 33
Reading data file ...
  orthogonal box = (-1.8578970 -1.8578970 0.0000000) to (26.665897 26.665897 59.665897)
  reading atoms ...
  1372 atoms
  reading velocities ...
  1372 velocities

# read_restart file flagn,''
variable P equal 300000
variable T equal 2500
variable dt equal 0.001

variable sys_press equal "press/10000"
variable sim string "heating"
#variable temp_word equal "heating"

# print "step temp vol pe" file heating.txt screen no

pair_style eam/alloy
pair_coeff * * Co_Zhou04.eam.alloy Co
Reading eam/alloy potential file Co_Zhou04.eam.alloy with DATE: 2018-03-30

# write_data ini_two_phase.in
neighbor 2 bin
neigh_modify every 10 check yes

# compute myPress all pressure "press/10000"
thermo 1000
thermo_style custom step temp vol press v_sys_press ke pe density
# thermo_modify press myPress

timestep $(dt)
timestep 0.0010000000000000000208

# write_data mixed.in
# run 0
velocity all create $T 89347
velocity all create 2500 89347

# print """
# yo aagadi
# """
# label ensemble

# print """
# Label pachadi solti, hos garam.
# """
# variable T equal 2000

# reset_timestep 0
fix 1 all npt temp $T $T $(dt*100) iso $P $P $(dt*1000)
fix 1 all npt temp 2500 $T $(dt*100) iso $P $P $(dt*1000)
fix 1 all npt temp 2500 2500 $(dt*100) iso $P $P $(dt*1000)
fix 1 all npt temp 2500 2500 0.10000000000000000555 iso $P $P $(dt*1000)
fix 1 all npt temp 2500 2500 0.10000000000000000555 iso 300000 $P $(dt*1000)
fix 1 all npt temp 2500 2500 0.10000000000000000555 iso 300000 300000 $(dt*1000)
fix 1 all npt temp 2500 2500 0.10000000000000000555 iso 300000 300000 1
print """
<--------------------------------------------------------------------->
<------------------ Equilibrating at temperature $T ----------------->
<--------------------------------------------------------------------->
"""

<--------------------------------------------------------------------->
<------------------ Equilibrating at temperature 2500 ----------------->
<--------------------------------------------------------------------->

dump 3 all custom 1000 two_phase_press_$P_$TK.lammpstrj id type x y z
dump 3 all custom 1000 two_phase_press_300000_$TK.lammpstrj id type x y z
dump 3 all custom 1000 two_phase_press_300000_2500K.lammpstrj id type x y z
run 200000
Last active /omp style is pair_style eam/alloy/omp
  update every 10 steps, delay 10 steps, check yes
Step Temp Volume Press v_sys_press KinEng PotEng Density
0         2500    48544.581   -24178.601   -2.4178601    886.40144   -9632.5996    5.5316025
Averages over the last 101 of 201 rows, steps 100000 to 200000:
Temp Volume Press v_sys_press KinEng PotEng Density
2499.18 28799.4 299914 29.9914 886.111 -11095.4 9.32419
Loop time of 468.394 on 8 procs for 200000 steps with 2744 atoms

# # fix 132 all momentum 100 linear 1 1 1 angular

run 50000
Last active /omp style is pair_style eam/alloy/omp
Step Temp Volume Press v_sys_press KinEng PotEng Density
200000    2469.0138    28855.278    295399.18    29.539918    875.41497   -11098.998    9.3060729
Averages over the last 26 of 51 rows, steps 225000 to 250000:
Temp Volume Press v_sys_press KinEng PotEng Density
2499.22 28792.1 299910 29.991 886.125 -11098.2 9.32655
Loop time of 116.367 on 8 procs for 50000 steps with 2744 atoms

# unfix temp
# unfix out_file_1

write_data two_phase_press_$P_$T_.in
write_data two_phase_press_300000_$T_.in
write_data two_phase_press_300000_2500_.in
System init for write_data ...
Last active /omp style is pair_style eam/alloy/omp
write_restart two_phase_press_$P_$T_ini.lmp
write_restart two_phase_press_300000_$T_ini.lmp
write_restart two_phase_press_300000_2500_ini.lmp
System init for write_restart ...
Last active /omp style is pair_style eam/alloy/omp
# next loopVar
# jump in.lmp ensemble
