LAMMPS (29 Oct 2020)
package omp 0
using multi-threaded neighbor list subroutines
package omp 2
set 2 OpenMP thread(s) per MPI task
using multi-threaded neighbor list subroutines
# units metal
# dimension 3
# boundary p p p

# lattice fcc 3.5440
# region box block 0 6 0 6 0 14 units lattice
# create_box 1 box
# create_atoms 1 box

read_restart two_phase_press_0_400_ini.lmp
Reading restart file ...
  restart file = 29 Oct 2020, LAMMPS = 29 Oct 2020
  restoring atom style atomic from restart
  orthogonal box = (-0.072338921 -0.072338921 -0.16879082) to (21.336339 21.336339 49.784791)
  pair style eam/alloy/omp stores no restart info
  2016 atoms
  read_restart CPU = 0.001 seconds

variable P equal 0
variable dt equal 0.001
# variable loopVar loop 6
variable sys_press equal "press/10000"
variable sim string "heating"
#variable temp_word equal "heating"

group cold_atoms id  <= 1008
1008 atoms in group cold_atoms
group hot_atoms  id  >= 1008
1009 atoms in group hot_atoms

# print "step temp vol pe" file heating.txt screen no

pair_style eam/alloy
pair_coeff * * Co_Zhou04.eam.alloy Co
Reading eam/alloy potential file Co_Zhou04.eam.alloy with DATE: 2018-03-30

neighbor 2 bin
neigh_modify every 10 check yes

thermo 1000
thermo_style custom step temp vol press ke pe density

timestep $(dt)
timestep 0.0010000000000000000208

velocity all create 2500 123123

print """
yo aagadi
"""

yo aagadi

label ensemble

print """
Label pachadi solti, hos garam.
"""

Label pachadi solti, hos garam.

variable T equal 4000

reset_timestep 0
fix 1 hot_atoms npt temp $T $T $(dt*100) iso $P $P $(dt*1000)
fix 1 hot_atoms npt temp 4000 $T $(dt*100) iso $P $P $(dt*1000)
fix 1 hot_atoms npt temp 4000 4000 $(dt*100) iso $P $P $(dt*1000)
fix 1 hot_atoms npt temp 4000 4000 0.10000000000000000555 iso $P $P $(dt*1000)
fix 1 hot_atoms npt temp 4000 4000 0.10000000000000000555 iso 0 $P $(dt*1000)
fix 1 hot_atoms npt temp 4000 4000 0.10000000000000000555 iso 0 0 $(dt*1000)
fix 1 hot_atoms npt temp 4000 4000 0.10000000000000000555 iso 0 0 1
  fix style: npt/omp, fix ID: 1
print """
<--------------------------------------------------------------------->
<------------------ Equilibrating at temperature $T ----------------->
<--------------------------------------------------------------------->
"""

<--------------------------------------------------------------------->
<------------------ Equilibrating at temperature 4000 ----------------->
<--------------------------------------------------------------------->

run 250000
All restart file global fix info was re-assigned
Last active /omp style is pair_style eam/alloy/omp
  update every 10 steps, delay 10 steps, check yes
Step Temp Volume Press KinEng PotEng Density
0         2500    22895.299    25391.175    651.14798   -8770.2421     8.616915
Averages over the last 126 of 251 rows, steps 125000 to 250000:
Temp Volume Press KinEng PotEng Density
3997.18 26456.4 51.7474 1041.1 -7825.9 7.45719
Loop time of 586.764 on 8 procs for 250000 steps with 2016 atoms

# fix 132 all momentum 100 linear 1 1 1 angular

dump 3 all custom 1000 traj_npt_ini_$P_$T.lammpstrj id type x y z vx vy vz
dump 3 all custom 1000 traj_npt_ini_0_$T.lammpstrj id type x y z vx vy vz
dump 3 all custom 1000 traj_npt_ini_0_4000.lammpstrj id type x y z vx vy vz

# compute myRDF all rdf 50
# fix myrdf all ave/time 300000 1 300000 c_myRDF[*] file rd.rdf mode vector
run 50000
Last active /omp style is pair_style eam/alloy/omp
Step Temp Volume Press KinEng PotEng Density
250000    4125.0214    26510.378   -3619.3099    1074.3997    -7831.229    7.4418725
Averages over the last 26 of 51 rows, steps 275000 to 300000:
Temp Volume Press KinEng PotEng Density
3982.25 26472.3 -1477.32 1037.21 -7827.96 7.45279
Loop time of 118.068 on 8 procs for 50000 steps with 2016 atoms

unfix temp
unfix out_file_1
# unfix myrdf

write_data two_phase_press_$P_$T_ini.in
write_data two_phase_press_0_$T_ini.in
write_data two_phase_press_0_4000_ini.in
System init for write_data ...
Last active /omp style is pair_style eam/alloy/omp
write_restart two_phase_press_$P_$T_ini.lmp
write_restart two_phase_press_0_$T_ini.lmp
write_restart two_phase_press_0_4000_ini.lmp
System init for write_restart ...
Last active /omp style is pair_style eam/alloy/omp
# next loopVar
# jump in.lmp ensemble
