LAMMPS (29 Oct 2020)
package omp 0
using multi-threaded neighbor list subroutines
package omp 2
set 2 OpenMP thread(s) per MPI task
using multi-threaded neighbor list subroutines
# units metal
# dimension 3
# boundary p p p

# lattice fcc 3.5440
# region box block 0 8 0 8 0 8 units lattice
# create_box 1 box
# create_atoms 1 box

read_restart after_heating_press_100000_2800.lmp
Reading restart file ...
  restart file = 29 Oct 2020, LAMMPS = 29 Oct 2020
  restoring atom style atomic from restart
  orthogonal box = (-0.48929851 -0.48929851 -0.48929851) to (28.841299 28.841299 28.841299)
  pair style eam/alloy/omp stores no restart info
  2048 atoms
  read_restart CPU = 0.001 seconds

variable P equal 100000
variable dt equal 0.001
variable loopVar loop 6
variable sys_press equal "press/10000"
variable sim string "cooling"
#variable temp_word equal "heating"

# print "step temp vol pe" file heating.txt screen no

pair_style eam/alloy
pair_coeff * * Co_Zhou04.eam.alloy Co
Reading eam/alloy potential file Co_Zhou04.eam.alloy with DATE: 2018-03-30

neighbor 2 bin
neigh_modify every 10 check yes

thermo 1000
thermo_style custom step temp vol press ke pe density

timestep $(dt)
timestep 0.0010000000000000000208

# velocity all create 2200 123123

print """
yo aagadi
"""

yo aagadi

label ensemble

print """
Label pachadi solti, hos garam.
"""

Label pachadi solti, hos garam.

variable T equal 1800-1*100
# variable T equal 2550

reset_timestep 0
fix 1 all npt temp $T $T $(dt*100) iso $P $P $(dt*1000)
fix 1 all npt temp 1700 $T $(dt*100) iso $P $P $(dt*1000)
fix 1 all npt temp 1700 1700 $(dt*100) iso $P $P $(dt*1000)
fix 1 all npt temp 1700 1700 0.10000000000000000555 iso $P $P $(dt*1000)
fix 1 all npt temp 1700 1700 0.10000000000000000555 iso 100000 $P $(dt*1000)
fix 1 all npt temp 1700 1700 0.10000000000000000555 iso 100000 100000 $(dt*1000)
fix 1 all npt temp 1700 1700 0.10000000000000000555 iso 100000 100000 1
  fix style: npt/omp, fix ID: 1
print """
<--------------------------------------------------------------------->
<------------------ Equilibrating at temperature $T ----------------->
<--------------------------------------------------------------------->
"""

<--------------------------------------------------------------------->
<------------------ Equilibrating at temperature 1700 ----------------->
<--------------------------------------------------------------------->

run 250000
All restart file global fix info was re-assigned
Last active /omp style is pair_style eam/alloy/omp
  update every 10 steps, delay 10 steps, check yes
Step Temp Volume Press KinEng PotEng Density
0    2843.8185    25232.641    97740.071    752.46162   -7912.6998    7.9428224
Averages over the last 126 of 251 rows, steps 125000 to 250000:
Temp Volume Press KinEng PotEng Density
1701.06 23811.3 99933.8 450.092 -8286.34 8.41698
Loop time of 490.444 on 8 procs for 250000 steps with 2048 atoms

# fix 132 all momentum 100 linear 1 1 1 angular

# dump 3 all custom 1000 traj_npt_new.lammpstrj id type x y z
run 50000
Last active /omp style is pair_style eam/alloy/omp
Step Temp Volume Press KinEng PotEng Density
250000    1706.1536    23801.798    101341.98    451.44059   -8286.7783    8.4203046
Averages over the last 26 of 51 rows, steps 275000 to 300000:
Temp Volume Press KinEng PotEng Density
1702.2 23809.1 99794 450.396 -8287.49 8.4178
Loop time of 99.4172 on 8 procs for 50000 steps with 2048 atoms

unfix temp
unfix out_file_1

write_data after_cooling_press_$P_$T.in
write_data after_cooling_press_100000_$T.in
write_data after_cooling_press_100000_1700.in
System init for write_data ...
Last active /omp style is pair_style eam/alloy/omp
write_restart after_cooling_press_$P_$T.lmp
write_restart after_cooling_press_100000_$T.lmp
write_restart after_cooling_press_100000_1700.lmp
System init for write_restart ...
Last active /omp style is pair_style eam/alloy/omp
next loopVar
jump in.lmp ensemble

print """
Label pachadi solti, hos garam.
"""

Label pachadi solti, hos garam.

variable T equal 1800-2*100
# variable T equal 2550

reset_timestep 0
fix 1 all npt temp $T $T $(dt*100) iso $P $P $(dt*1000)
fix 1 all npt temp 1600 $T $(dt*100) iso $P $P $(dt*1000)
fix 1 all npt temp 1600 1600 $(dt*100) iso $P $P $(dt*1000)
fix 1 all npt temp 1600 1600 0.10000000000000000555 iso $P $P $(dt*1000)
fix 1 all npt temp 1600 1600 0.10000000000000000555 iso 100000 $P $(dt*1000)
fix 1 all npt temp 1600 1600 0.10000000000000000555 iso 100000 100000 $(dt*1000)
fix 1 all npt temp 1600 1600 0.10000000000000000555 iso 100000 100000 1
print """
<--------------------------------------------------------------------->
<------------------ Equilibrating at temperature $T ----------------->
<--------------------------------------------------------------------->
"""

<--------------------------------------------------------------------->
<------------------ Equilibrating at temperature 1600 ----------------->
<--------------------------------------------------------------------->

run 250000
Last active /omp style is pair_style eam/alloy/omp
Step Temp Volume Press KinEng PotEng Density
0    1704.8483    23836.176    101214.13    451.09522   -8274.4857    8.4081602
Averages over the last 126 of 251 rows, steps 125000 to 250000:
Temp Volume Press KinEng PotEng Density
1597.84 23669.9 100331 422.782 -8326.01 8.46728
Loop time of 536.161 on 8 procs for 250000 steps with 2048 atoms

# fix 132 all momentum 100 linear 1 1 1 angular

# dump 3 all custom 1000 traj_npt_new.lammpstrj id type x y z
run 50000
Last active /omp style is pair_style eam/alloy/omp
Step Temp Volume Press KinEng PotEng Density
250000    1599.3782    23609.583    101104.96     423.1883   -8343.1678    8.4888576
Averages over the last 26 of 51 rows, steps 275000 to 300000:
Temp Volume Press KinEng PotEng Density
1601.09 23671.4 100151 423.641 -8326.26 8.46674
Loop time of 129.87 on 8 procs for 50000 steps with 2048 atoms

unfix temp
unfix out_file_1

write_data after_cooling_press_$P_$T.in
write_data after_cooling_press_100000_$T.in
write_data after_cooling_press_100000_1600.in
System init for write_data ...
Last active /omp style is pair_style eam/alloy/omp
write_restart after_cooling_press_$P_$T.lmp
write_restart after_cooling_press_100000_$T.lmp
write_restart after_cooling_press_100000_1600.lmp
System init for write_restart ...
Last active /omp style is pair_style eam/alloy/omp
next loopVar
jump in.lmp ensemble

print """
Label pachadi solti, hos garam.
"""

Label pachadi solti, hos garam.

variable T equal 1800-3*100
# variable T equal 2550

reset_timestep 0
fix 1 all npt temp $T $T $(dt*100) iso $P $P $(dt*1000)
fix 1 all npt temp 1500 $T $(dt*100) iso $P $P $(dt*1000)
fix 1 all npt temp 1500 1500 $(dt*100) iso $P $P $(dt*1000)
fix 1 all npt temp 1500 1500 0.10000000000000000555 iso $P $P $(dt*1000)
fix 1 all npt temp 1500 1500 0.10000000000000000555 iso 100000 $P $(dt*1000)
fix 1 all npt temp 1500 1500 0.10000000000000000555 iso 100000 100000 $(dt*1000)
fix 1 all npt temp 1500 1500 0.10000000000000000555 iso 100000 100000 1
print """
<--------------------------------------------------------------------->
<------------------ Equilibrating at temperature $T ----------------->
<--------------------------------------------------------------------->
"""

<--------------------------------------------------------------------->
<------------------ Equilibrating at temperature 1500 ----------------->
<--------------------------------------------------------------------->

run 250000
Last active /omp style is pair_style eam/alloy/omp
Step Temp Volume Press KinEng PotEng Density
0    1631.4256    23642.968     101629.6    431.66789   -8333.1506     8.476871
Averages over the last 126 of 251 rows, steps 125000 to 250000:
Temp Volume Press KinEng PotEng Density
1499.47 23552.5 99919.6 396.752 -8362.32 8.50948
Loop time of 537.498 on 8 procs for 250000 steps with 2048 atoms

# fix 132 all momentum 100 linear 1 1 1 angular

# dump 3 all custom 1000 traj_npt_new.lammpstrj id type x y z
run 50000
Last active /omp style is pair_style eam/alloy/omp
Step Temp Volume Press KinEng PotEng Density
250000    1490.8537    23520.077    101871.76     394.4732   -8364.9386    8.5211619
Averages over the last 26 of 51 rows, steps 275000 to 300000:
Temp Volume Press KinEng PotEng Density
1503.07 23553.9 99296.4 397.706 -8364.61 8.50901
Loop time of 104.202 on 8 procs for 50000 steps with 2048 atoms

unfix temp
unfix out_file_1

write_data after_cooling_press_$P_$T.in
write_data after_cooling_press_100000_$T.in
write_data after_cooling_press_100000_1500.in
System init for write_data ...
Last active /omp style is pair_style eam/alloy/omp
write_restart after_cooling_press_$P_$T.lmp
write_restart after_cooling_press_100000_$T.lmp
write_restart after_cooling_press_100000_1500.lmp
System init for write_restart ...
Last active /omp style is pair_style eam/alloy/omp
next loopVar
jump in.lmp ensemble

print """
Label pachadi solti, hos garam.
"""

Label pachadi solti, hos garam.

variable T equal 1800-4*100
# variable T equal 2550

reset_timestep 0
fix 1 all npt temp $T $T $(dt*100) iso $P $P $(dt*1000)
fix 1 all npt temp 1400 $T $(dt*100) iso $P $P $(dt*1000)
fix 1 all npt temp 1400 1400 $(dt*100) iso $P $P $(dt*1000)
fix 1 all npt temp 1400 1400 0.10000000000000000555 iso $P $P $(dt*1000)
fix 1 all npt temp 1400 1400 0.10000000000000000555 iso 100000 $P $(dt*1000)
fix 1 all npt temp 1400 1400 0.10000000000000000555 iso 100000 100000 $(dt*1000)
fix 1 all npt temp 1400 1400 0.10000000000000000555 iso 100000 100000 1
print """
<--------------------------------------------------------------------->
<------------------ Equilibrating at temperature $T ----------------->
<--------------------------------------------------------------------->
"""

<--------------------------------------------------------------------->
<------------------ Equilibrating at temperature 1400 ----------------->
<--------------------------------------------------------------------->

run 250000
Last active /omp style is pair_style eam/alloy/omp
Step Temp Volume Press KinEng PotEng Density
0    1461.5555    23523.757    100621.33    386.72104   -8364.6533     8.519829
Averages over the last 126 of 251 rows, steps 125000 to 250000:
Temp Volume Press KinEng PotEng Density
1400.82 22874.1 99256.4 370.65 -8593.61 8.76183
Loop time of 529.549 on 8 procs for 250000 steps with 2048 atoms

# fix 132 all momentum 100 linear 1 1 1 angular

# dump 3 all custom 1000 traj_npt_new.lammpstrj id type x y z
run 50000
Last active /omp style is pair_style eam/alloy/omp
Step Temp Volume Press KinEng PotEng Density
250000    1381.2328    22846.612    102669.66    365.46801   -8587.9126     8.772346
Averages over the last 26 of 51 rows, steps 275000 to 300000:
Temp Volume Press KinEng PotEng Density
1388.06 22866.7 99930.6 367.275 -8592.84 8.76468
Loop time of 104.486 on 8 procs for 50000 steps with 2048 atoms

unfix temp
unfix out_file_1

write_data after_cooling_press_$P_$T.in
write_data after_cooling_press_100000_$T.in
write_data after_cooling_press_100000_1400.in
System init for write_data ...
Last active /omp style is pair_style eam/alloy/omp
write_restart after_cooling_press_$P_$T.lmp
write_restart after_cooling_press_100000_$T.lmp
write_restart after_cooling_press_100000_1400.lmp
System init for write_restart ...
Last active /omp style is pair_style eam/alloy/omp
next loopVar
jump in.lmp ensemble

print """
Label pachadi solti, hos garam.
"""

Label pachadi solti, hos garam.

variable T equal 1800-5*100
# variable T equal 2550

reset_timestep 0
fix 1 all npt temp $T $T $(dt*100) iso $P $P $(dt*1000)
fix 1 all npt temp 1300 $T $(dt*100) iso $P $P $(dt*1000)
fix 1 all npt temp 1300 1300 $(dt*100) iso $P $P $(dt*1000)
fix 1 all npt temp 1300 1300 0.10000000000000000555 iso $P $P $(dt*1000)
fix 1 all npt temp 1300 1300 0.10000000000000000555 iso 100000 $P $(dt*1000)
fix 1 all npt temp 1300 1300 0.10000000000000000555 iso 100000 100000 $(dt*1000)
fix 1 all npt temp 1300 1300 0.10000000000000000555 iso 100000 100000 1
print """
<--------------------------------------------------------------------->
<------------------ Equilibrating at temperature $T ----------------->
<--------------------------------------------------------------------->
"""

<--------------------------------------------------------------------->
<------------------ Equilibrating at temperature 1300 ----------------->
<--------------------------------------------------------------------->

run 250000
Last active /omp style is pair_style eam/alloy/omp
Step Temp Volume Press KinEng PotEng Density
0    1365.8682    22837.513    103134.66     361.4026   -8587.7067    8.7758413
Averages over the last 126 of 251 rows, steps 125000 to 250000:
Temp Volume Press KinEng PotEng Density
1301.07 22780.9 99881.9 344.258 -8620.55 8.79769
Loop time of 517.416 on 8 procs for 250000 steps with 2048 atoms

# fix 132 all momentum 100 linear 1 1 1 angular

# dump 3 all custom 1000 traj_npt_new.lammpstrj id type x y z
run 50000
Last active /omp style is pair_style eam/alloy/omp
Step Temp Volume Press KinEng PotEng Density
250000    1297.5604    22678.961    108528.45    343.32866   -8618.0634    8.8371944
Averages over the last 26 of 51 rows, steps 275000 to 300000:
Temp Volume Press KinEng PotEng Density
1297.9 22778.9 100121 343.419 -8619.98 8.79844
Loop time of 105.38 on 8 procs for 50000 steps with 2048 atoms

unfix temp
unfix out_file_1

write_data after_cooling_press_$P_$T.in
write_data after_cooling_press_100000_$T.in
write_data after_cooling_press_100000_1300.in
System init for write_data ...
Last active /omp style is pair_style eam/alloy/omp
write_restart after_cooling_press_$P_$T.lmp
write_restart after_cooling_press_100000_$T.lmp
write_restart after_cooling_press_100000_1300.lmp
System init for write_restart ...
Last active /omp style is pair_style eam/alloy/omp
next loopVar
jump in.lmp ensemble

print """
Label pachadi solti, hos garam.
"""

Label pachadi solti, hos garam.

variable T equal 1800-6*100
# variable T equal 2550

reset_timestep 0
fix 1 all npt temp $T $T $(dt*100) iso $P $P $(dt*1000)
fix 1 all npt temp 1200 $T $(dt*100) iso $P $P $(dt*1000)
fix 1 all npt temp 1200 1200 $(dt*100) iso $P $P $(dt*1000)
fix 1 all npt temp 1200 1200 0.10000000000000000555 iso $P $P $(dt*1000)
fix 1 all npt temp 1200 1200 0.10000000000000000555 iso 100000 $P $(dt*1000)
fix 1 all npt temp 1200 1200 0.10000000000000000555 iso 100000 100000 $(dt*1000)
fix 1 all npt temp 1200 1200 0.10000000000000000555 iso 100000 100000 1
print """
<--------------------------------------------------------------------->
<------------------ Equilibrating at temperature $T ----------------->
<--------------------------------------------------------------------->
"""

<--------------------------------------------------------------------->
<------------------ Equilibrating at temperature 1200 ----------------->
<--------------------------------------------------------------------->

run 250000
Last active /omp style is pair_style eam/alloy/omp
Step Temp Volume Press KinEng PotEng Density
0    1312.5224    22781.455    99531.158    347.28755   -8622.4374    8.7974357
Averages over the last 126 of 251 rows, steps 125000 to 250000:
Temp Volume Press KinEng PotEng Density
1200.2 22694.7 100111 317.568 -8646.53 8.83109
Loop time of 625.902 on 8 procs for 250000 steps with 2048 atoms

# fix 132 all momentum 100 linear 1 1 1 angular

# dump 3 all custom 1000 traj_npt_new.lammpstrj id type x y z
run 50000
Last active /omp style is pair_style eam/alloy/omp
Step Temp Volume Press KinEng PotEng Density
250000    1235.3619    22662.395    103888.01    326.87122   -8645.0995    8.8436544
Averages over the last 26 of 51 rows, steps 275000 to 300000:
Temp Volume Press KinEng PotEng Density
1198.75 22698.9 99830.7 317.184 -8646.67 8.82944
Loop time of 103.58 on 8 procs for 50000 steps with 2048 atoms

unfix temp
unfix out_file_1

write_data after_cooling_press_$P_$T.in
write_data after_cooling_press_100000_$T.in
write_data after_cooling_press_100000_1200.in
System init for write_data ...
Last active /omp style is pair_style eam/alloy/omp
write_restart after_cooling_press_$P_$T.lmp
write_restart after_cooling_press_100000_$T.lmp
write_restart after_cooling_press_100000_1200.lmp
System init for write_restart ...
Last active /omp style is pair_style eam/alloy/omp
next loopVar
jump in.lmp ensemble
