LAMMPS (29 Oct 2020)
package omp 0
using multi-threaded neighbor list subroutines
package omp 2
set 2 OpenMP thread(s) per MPI task
using multi-threaded neighbor list subroutines
# units metal
# dimension 3
# boundary p p p

# lattice fcc 3.5440
# region box block 0 8 0 8 0 8 units lattice
# create_box 1 box
# create_atoms 1 box

read_restart after_heating_2400.lmp
Reading restart file ...
  restart file = 29 Oct 2020, LAMMPS = 29 Oct 2020
  restoring atom style atomic from restart
  orthogonal box = (-0.82404704 -0.82404704 -0.82404704) to (29.176047 29.176047 29.176047)
  pair style eam/alloy/omp stores no restart info
  2048 atoms
  read_restart CPU = 0.001 seconds

variable P equal 0
variable dt equal 0.001
variable loopVar loop 22
variable sys_press equal "press/10000"
# print "step temp vol pe" file heating.txt screen no

pair_style eam/alloy
pair_coeff * * Co_Zhou04.eam.alloy Co
Reading eam/alloy potential file Co_Zhou04.eam.alloy with DATE: 2018-03-30

neighbor 2 bin
neigh_modify every 10 check yes

thermo 1000
thermo_style custom step temp vol press ke pe density

timestep $(dt)
timestep 0.0010000000000000000208

# fix 2 all npt temp 300 300 $(dt*100) iso 0 0 $(dt*1000)
# run 30000
# unfix 2

# dump_modify 1 append yes
# dump 3 all custom 10000 traj_npt_new.lammpstrj id type x y z

# velocity all create 300 123123

print """
asdfasdfasdfasdfsadfasddsaffffffffffff
"""

asdfasdfasdfasdfsadfasddsaffffffffffff

label ensemble

print """
Hi HI Hi
"""

Hi HI Hi

variable T equal 2500-1*100
# velocity all create $T 123123
reset_timestep 0
fix 1 all npt temp $T $T $(dt*100) iso 0 0 $(dt*1000)
fix 1 all npt temp 2400 $T $(dt*100) iso 0 0 $(dt*1000)
fix 1 all npt temp 2400 2400 $(dt*100) iso 0 0 $(dt*1000)
fix 1 all npt temp 2400 2400 0.10000000000000000555 iso 0 0 $(dt*1000)
fix 1 all npt temp 2400 2400 0.10000000000000000555 iso 0 0 1
print """
<--------------------------------------------------------------------->
<------------------ Equilibrating at temperature $T ----------------->
<--------------------------------------------------------------------->
"""

<--------------------------------------------------------------------->
<------------------ Equilibrating at temperature 2400 ----------------->
<--------------------------------------------------------------------->

run 150000
Last active /omp style is pair_style eam/alloy/omp
  update every 10 steps, delay 10 steps, check yes
Step Temp Volume Press KinEng PotEng Density
0    2411.8725    27000.254    187.09855    638.17065   -7879.8167    7.4228334
Averages over the last 76 of 151 rows, steps 75000 to 150000:
Temp Volume Press KinEng PotEng Density
2405.45 26951.2 -427.958 636.472 -7892.42 7.43645
Loop time of 652.359 on 4 procs for 150000 steps with 2048 atoms

# fix 132 all momentum 100 linear 1 1 1 angular

# dump 3 all custom 1000 traj_npt_new.lammpstrj id type x y z
run 50000
Last active /omp style is pair_style eam/alloy/omp
Step Temp Volume Press KinEng PotEng Density
150000    2344.7937    26916.856    1006.6148     620.4219   -7891.3744     7.445832
Averages over the last 26 of 51 rows, steps 175000 to 200000:
Temp Volume Press KinEng PotEng Density
2406.68 26956.6 -466.527 636.798 -7891.59 7.43495
Loop time of 213.165 on 4 procs for 50000 steps with 2048 atoms

unfix temp
unfix out_file_1
unfix 1
# # clear
# write_data after_cooling_$T.in
# write_restart after_cooling_$T.lmp
next loopVar
# # thermo_modify flush yes
jump in.lmp ensemble

print """
Hi HI Hi
"""

Hi HI Hi

variable T equal 2500-2*100
# velocity all create $T 123123
reset_timestep 0
fix 1 all npt temp $T $T $(dt*100) iso 0 0 $(dt*1000)
fix 1 all npt temp 2300 $T $(dt*100) iso 0 0 $(dt*1000)
fix 1 all npt temp 2300 2300 $(dt*100) iso 0 0 $(dt*1000)
fix 1 all npt temp 2300 2300 0.10000000000000000555 iso 0 0 $(dt*1000)
fix 1 all npt temp 2300 2300 0.10000000000000000555 iso 0 0 1
print """
<--------------------------------------------------------------------->
<------------------ Equilibrating at temperature $T ----------------->
<--------------------------------------------------------------------->
"""

<--------------------------------------------------------------------->
<------------------ Equilibrating at temperature 2300 ----------------->
<--------------------------------------------------------------------->

run 150000
Last active /omp style is pair_style eam/alloy/omp
Step Temp Volume Press KinEng PotEng Density
0    2316.1663    26980.744    -1453.365    612.84721   -7888.1022    7.4282008
Averages over the last 76 of 151 rows, steps 75000 to 150000:
Temp Volume Press KinEng PotEng Density
2299.22 26775.8 -513.455 608.364 -7932 7.48512
Loop time of 607.424 on 4 procs for 150000 steps with 2048 atoms

# fix 132 all momentum 100 linear 1 1 1 angular

# dump 3 all custom 1000 traj_npt_new.lammpstrj id type x y z
run 50000
Last active /omp style is pair_style eam/alloy/omp
Step Temp Volume Press KinEng PotEng Density
150000    2284.8594    26546.434    10724.129    604.56357   -7934.4538    7.5497292
Averages over the last 26 of 51 rows, steps 175000 to 200000:
Temp Volume Press KinEng PotEng Density
2300.55 26754.3 1147.59 608.716 -7928.91 7.49115
Loop time of 202.728 on 4 procs for 50000 steps with 2048 atoms

unfix temp
unfix out_file_1
unfix 1
# # clear
# write_data after_cooling_$T.in
# write_restart after_cooling_$T.lmp
next loopVar
# # thermo_modify flush yes
jump in.lmp ensemble

print """
Hi HI Hi
"""

Hi HI Hi

variable T equal 2500-3*100
# velocity all create $T 123123
reset_timestep 0
fix 1 all npt temp $T $T $(dt*100) iso 0 0 $(dt*1000)
fix 1 all npt temp 2200 $T $(dt*100) iso 0 0 $(dt*1000)
fix 1 all npt temp 2200 2200 $(dt*100) iso 0 0 $(dt*1000)
fix 1 all npt temp 2200 2200 0.10000000000000000555 iso 0 0 $(dt*1000)
fix 1 all npt temp 2200 2200 0.10000000000000000555 iso 0 0 1
print """
<--------------------------------------------------------------------->
<------------------ Equilibrating at temperature $T ----------------->
<--------------------------------------------------------------------->
"""

<--------------------------------------------------------------------->
<------------------ Equilibrating at temperature 2200 ----------------->
<--------------------------------------------------------------------->

run 150000
Last active /omp style is pair_style eam/alloy/omp
Step Temp Volume Press KinEng PotEng Density
0    2307.7665    26716.634    5916.1279    610.62467   -7915.1622    7.5016332
Averages over the last 76 of 151 rows, steps 75000 to 150000:
Temp Volume Press KinEng PotEng Density
2195.58 26589.9 -76.7182 580.941 -7972.35 7.53748
Loop time of 607.688 on 4 procs for 150000 steps with 2048 atoms

# fix 132 all momentum 100 linear 1 1 1 angular

# dump 3 all custom 1000 traj_npt_new.lammpstrj id type x y z
run 50000
Last active /omp style is pair_style eam/alloy/omp
Step Temp Volume Press KinEng PotEng Density
150000     2218.809    26612.705    30.523942    587.08692   -7968.7967    7.5309288
Averages over the last 26 of 51 rows, steps 175000 to 200000:
Temp Volume Press KinEng PotEng Density
2205.82 26566.8 916.271 583.65 -7974.12 7.54407
Loop time of 202.344 on 4 procs for 50000 steps with 2048 atoms

unfix temp
unfix out_file_1
unfix 1
# # clear
# write_data after_cooling_$T.in
# write_restart after_cooling_$T.lmp
next loopVar
# # thermo_modify flush yes
jump in.lmp ensemble

print """
Hi HI Hi
"""

Hi HI Hi

variable T equal 2500-4*100
# velocity all create $T 123123
reset_timestep 0
fix 1 all npt temp $T $T $(dt*100) iso 0 0 $(dt*1000)
fix 1 all npt temp 2100 $T $(dt*100) iso 0 0 $(dt*1000)
fix 1 all npt temp 2100 2100 $(dt*100) iso 0 0 $(dt*1000)
fix 1 all npt temp 2100 2100 0.10000000000000000555 iso 0 0 $(dt*1000)
fix 1 all npt temp 2100 2100 0.10000000000000000555 iso 0 0 1
print """
<--------------------------------------------------------------------->
<------------------ Equilibrating at temperature $T ----------------->
<--------------------------------------------------------------------->
"""

<--------------------------------------------------------------------->
<------------------ Equilibrating at temperature 2100 ----------------->
<--------------------------------------------------------------------->

run 150000
Last active /omp style is pair_style eam/alloy/omp
Step Temp Volume Press KinEng PotEng Density
0     2279.191    26470.006    6327.6044    603.06371   -7976.9848    7.5715279
Averages over the last 76 of 151 rows, steps 75000 to 150000:
Temp Volume Press KinEng PotEng Density
2103.77 26419.7 -228.874 556.649 -8012.4 7.58603
Loop time of 609.612 on 4 procs for 150000 steps with 2048 atoms

# fix 132 all momentum 100 linear 1 1 1 angular

# dump 3 all custom 1000 traj_npt_new.lammpstrj id type x y z
run 50000
Last active /omp style is pair_style eam/alloy/omp
Step Temp Volume Press KinEng PotEng Density
150000    2138.8296    26490.216   -4129.7454    565.92473   -8020.0117    7.5657513
Averages over the last 26 of 51 rows, steps 175000 to 200000:
Temp Volume Press KinEng PotEng Density
2107.19 26442.6 -931.846 557.552 -8009.89 7.57944
Loop time of 203.897 on 4 procs for 50000 steps with 2048 atoms

unfix temp
unfix out_file_1
unfix 1
# # clear
# write_data after_cooling_$T.in
# write_restart after_cooling_$T.lmp
next loopVar
# # thermo_modify flush yes
jump in.lmp ensemble

print """
Hi HI Hi
"""

Hi HI Hi

variable T equal 2500-5*100
# velocity all create $T 123123
reset_timestep 0
fix 1 all npt temp $T $T $(dt*100) iso 0 0 $(dt*1000)
fix 1 all npt temp 2000 $T $(dt*100) iso 0 0 $(dt*1000)
fix 1 all npt temp 2000 2000 $(dt*100) iso 0 0 $(dt*1000)
fix 1 all npt temp 2000 2000 0.10000000000000000555 iso 0 0 $(dt*1000)
fix 1 all npt temp 2000 2000 0.10000000000000000555 iso 0 0 1
print """
<--------------------------------------------------------------------->
<------------------ Equilibrating at temperature $T ----------------->
<--------------------------------------------------------------------->
"""

<--------------------------------------------------------------------->
<------------------ Equilibrating at temperature 2000 ----------------->
<--------------------------------------------------------------------->

run 150000
Last active /omp style is pair_style eam/alloy/omp
Step Temp Volume Press KinEng PotEng Density
0    2104.2891     26627.21   -7850.6678    556.78547   -7992.4203    7.5268265
Averages over the last 76 of 151 rows, steps 75000 to 150000:
Temp Volume Press KinEng PotEng Density
2001.91 26235.8 18.6471 529.696 -8054.97 7.63921
Loop time of 613.565 on 4 procs for 150000 steps with 2048 atoms

# fix 132 all momentum 100 linear 1 1 1 angular

# dump 3 all custom 1000 traj_npt_new.lammpstrj id type x y z
run 50000
Last active /omp style is pair_style eam/alloy/omp
Step Temp Volume Press KinEng PotEng Density
150000    1971.1152     26118.97    6687.4384    521.54825   -8055.7498    7.6732883
Averages over the last 26 of 51 rows, steps 175000 to 200000:
Temp Volume Press KinEng PotEng Density
1999.95 26256.8 -499.255 529.179 -8051.08 7.63308
Loop time of 204.411 on 4 procs for 50000 steps with 2048 atoms

unfix temp
unfix out_file_1
unfix 1
# # clear
# write_data after_cooling_$T.in
# write_restart after_cooling_$T.lmp
next loopVar
# # thermo_modify flush yes
jump in.lmp ensemble

print """
Hi HI Hi
"""

Hi HI Hi

variable T equal 2500-6*100
# velocity all create $T 123123
reset_timestep 0
fix 1 all npt temp $T $T $(dt*100) iso 0 0 $(dt*1000)
fix 1 all npt temp 1900 $T $(dt*100) iso 0 0 $(dt*1000)
fix 1 all npt temp 1900 1900 $(dt*100) iso 0 0 $(dt*1000)
fix 1 all npt temp 1900 1900 0.10000000000000000555 iso 0 0 $(dt*1000)
fix 1 all npt temp 1900 1900 0.10000000000000000555 iso 0 0 1
print """
<--------------------------------------------------------------------->
<------------------ Equilibrating at temperature $T ----------------->
<--------------------------------------------------------------------->
"""

<--------------------------------------------------------------------->
<------------------ Equilibrating at temperature 1900 ----------------->
<--------------------------------------------------------------------->

run 150000
Last active /omp style is pair_style eam/alloy/omp
Step Temp Volume Press KinEng PotEng Density
0    2021.4965    26114.943    5423.1739    534.87891   -8060.8047    7.6744714
Averages over the last 76 of 151 rows, steps 75000 to 150000:
Temp Volume Press KinEng PotEng Density
1901.18 26064.9 -142.229 503.043 -8095.89 7.68928
Loop time of 611.771 on 4 procs for 150000 steps with 2048 atoms

# fix 132 all momentum 100 linear 1 1 1 angular

# dump 3 all custom 1000 traj_npt_new.lammpstrj id type x y z
run 50000
Last active /omp style is pair_style eam/alloy/omp
Step Temp Volume Press KinEng PotEng Density
150000    1881.4698    26125.056   -3401.1101    497.82849   -8095.0127    7.6715007
Averages over the last 26 of 51 rows, steps 175000 to 200000:
Temp Volume Press KinEng PotEng Density
1898.01 26056.5 -112.865 502.204 -8097.63 7.69174
Loop time of 205.521 on 4 procs for 50000 steps with 2048 atoms

unfix temp
unfix out_file_1
unfix 1
# # clear
# write_data after_cooling_$T.in
# write_restart after_cooling_$T.lmp
next loopVar
# # thermo_modify flush yes
jump in.lmp ensemble

print """
Hi HI Hi
"""

Hi HI Hi

variable T equal 2500-7*100
# velocity all create $T 123123
reset_timestep 0
fix 1 all npt temp $T $T $(dt*100) iso 0 0 $(dt*1000)
fix 1 all npt temp 1800 $T $(dt*100) iso 0 0 $(dt*1000)
fix 1 all npt temp 1800 1800 $(dt*100) iso 0 0 $(dt*1000)
fix 1 all npt temp 1800 1800 0.10000000000000000555 iso 0 0 $(dt*1000)
fix 1 all npt temp 1800 1800 0.10000000000000000555 iso 0 0 1
print """
<--------------------------------------------------------------------->
<------------------ Equilibrating at temperature $T ----------------->
<--------------------------------------------------------------------->
"""

<--------------------------------------------------------------------->
<------------------ Equilibrating at temperature 1800 ----------------->
<--------------------------------------------------------------------->

run 150000
Last active /omp style is pair_style eam/alloy/omp
Step Temp Volume Press KinEng PotEng Density
0    1852.9459    25984.081    1603.1192    490.28118   -8109.2297     7.713122
Averages over the last 76 of 151 rows, steps 75000 to 150000:
Temp Volume Press KinEng PotEng Density
1805.24 25886.1 30.7746 477.658 -8138.03 7.74238
Loop time of 613.139 on 4 procs for 150000 steps with 2048 atoms

# fix 132 all momentum 100 linear 1 1 1 angular

# dump 3 all custom 1000 traj_npt_new.lammpstrj id type x y z
run 50000
Last active /omp style is pair_style eam/alloy/omp
Step Temp Volume Press KinEng PotEng Density
150000    1787.5872    25944.255   -3234.4531    472.98756   -8139.3096    7.7249622
Averages over the last 26 of 51 rows, steps 175000 to 200000:
Temp Volume Press KinEng PotEng Density
1796.94 25882.2 440.852 475.462 -8137.17 7.74354
Loop time of 206.215 on 4 procs for 50000 steps with 2048 atoms

unfix temp
unfix out_file_1
unfix 1
# # clear
# write_data after_cooling_$T.in
# write_restart after_cooling_$T.lmp
next loopVar
# # thermo_modify flush yes
jump in.lmp ensemble

print """
Hi HI Hi
"""

Hi HI Hi

variable T equal 2500-8*100
# velocity all create $T 123123
reset_timestep 0
fix 1 all npt temp $T $T $(dt*100) iso 0 0 $(dt*1000)
fix 1 all npt temp 1700 $T $(dt*100) iso 0 0 $(dt*1000)
fix 1 all npt temp 1700 1700 $(dt*100) iso 0 0 $(dt*1000)
fix 1 all npt temp 1700 1700 0.10000000000000000555 iso 0 0 $(dt*1000)
fix 1 all npt temp 1700 1700 0.10000000000000000555 iso 0 0 1
print """
<--------------------------------------------------------------------->
<------------------ Equilibrating at temperature $T ----------------->
<--------------------------------------------------------------------->
"""

<--------------------------------------------------------------------->
<------------------ Equilibrating at temperature 1700 ----------------->
<--------------------------------------------------------------------->

run 150000
Last active /omp style is pair_style eam/alloy/omp
Step Temp Volume Press KinEng PotEng Density
0    1756.9031    25819.703    3312.1738    464.86869   -8141.9268    7.7622268
Averages over the last 76 of 151 rows, steps 75000 to 150000:
Temp Volume Press KinEng PotEng Density
1704.33 25708.7 56.5333 450.959 -8181.45 7.79581
Loop time of 617.579 on 4 procs for 150000 steps with 2048 atoms

# fix 132 all momentum 100 linear 1 1 1 angular

# dump 3 all custom 1000 traj_npt_new.lammpstrj id type x y z
run 50000
Last active /omp style is pair_style eam/alloy/omp
Step Temp Volume Press KinEng PotEng Density
150000    1729.9336    25760.082   -3660.2409    457.73267   -8183.6906    7.7801921
Averages over the last 26 of 51 rows, steps 175000 to 200000:
Temp Volume Press KinEng PotEng Density
1701.68 25697.1 243.72 450.257 -8184.13 7.79932
Loop time of 207.79 on 4 procs for 50000 steps with 2048 atoms

unfix temp
unfix out_file_1
unfix 1
# # clear
# write_data after_cooling_$T.in
# write_restart after_cooling_$T.lmp
next loopVar
# # thermo_modify flush yes
jump in.lmp ensemble

print """
Hi HI Hi
"""

Hi HI Hi

variable T equal 2500-9*100
# velocity all create $T 123123
reset_timestep 0
fix 1 all npt temp $T $T $(dt*100) iso 0 0 $(dt*1000)
fix 1 all npt temp 1600 $T $(dt*100) iso 0 0 $(dt*1000)
fix 1 all npt temp 1600 1600 $(dt*100) iso 0 0 $(dt*1000)
fix 1 all npt temp 1600 1600 0.10000000000000000555 iso 0 0 $(dt*1000)
fix 1 all npt temp 1600 1600 0.10000000000000000555 iso 0 0 1
print """
<--------------------------------------------------------------------->
<------------------ Equilibrating at temperature $T ----------------->
<--------------------------------------------------------------------->
"""

<--------------------------------------------------------------------->
<------------------ Equilibrating at temperature 1600 ----------------->
<--------------------------------------------------------------------->

run 150000
Last active /omp style is pair_style eam/alloy/omp
Step Temp Volume Press KinEng PotEng Density
0     1649.538    25713.778   -627.56496    436.46035   -8180.2884    7.7942023
Averages over the last 76 of 151 rows, steps 75000 to 150000:
Temp Volume Press KinEng PotEng Density
1594.92 25524.2 340.614 422.008 -8225.83 7.85215
Loop time of 622.037 on 4 procs for 150000 steps with 2048 atoms

# fix 132 all momentum 100 linear 1 1 1 angular

# dump 3 all custom 1000 traj_npt_new.lammpstrj id type x y z
run 50000
Last active /omp style is pair_style eam/alloy/omp
Step Temp Volume Press KinEng PotEng Density
150000    1586.6126    25526.924    783.16801    419.81058   -8221.5471    7.8512549
Averages over the last 26 of 51 rows, steps 175000 to 200000:
Temp Volume Press KinEng PotEng Density
1597.25 25511.3 214.001 422.624 -8230.92 7.85613
Loop time of 206.804 on 4 procs for 50000 steps with 2048 atoms

unfix temp
unfix out_file_1
unfix 1
# # clear
# write_data after_cooling_$T.in
# write_restart after_cooling_$T.lmp
next loopVar
# # thermo_modify flush yes
jump in.lmp ensemble

print """
Hi HI Hi
"""

Hi HI Hi

variable T equal 2500-10*100
# velocity all create $T 123123
reset_timestep 0
fix 1 all npt temp $T $T $(dt*100) iso 0 0 $(dt*1000)
fix 1 all npt temp 1500 $T $(dt*100) iso 0 0 $(dt*1000)
fix 1 all npt temp 1500 1500 $(dt*100) iso 0 0 $(dt*1000)
fix 1 all npt temp 1500 1500 0.10000000000000000555 iso 0 0 $(dt*1000)
fix 1 all npt temp 1500 1500 0.10000000000000000555 iso 0 0 1
print """
<--------------------------------------------------------------------->
<------------------ Equilibrating at temperature $T ----------------->
<--------------------------------------------------------------------->
"""

<--------------------------------------------------------------------->
<------------------ Equilibrating at temperature 1500 ----------------->
<--------------------------------------------------------------------->

run 150000
Last active /omp style is pair_style eam/alloy/omp
Step Temp Volume Press KinEng PotEng Density
0    1620.4497    25482.586   -425.90003    428.76373   -8241.3358    7.8649154
Averages over the last 76 of 151 rows, steps 75000 to 150000:
Temp Volume Press KinEng PotEng Density
1506.36 25343 -67.8767 398.576 -8273.65 7.90829
Loop time of 618.059 on 4 procs for 150000 steps with 2048 atoms

# fix 132 all momentum 100 linear 1 1 1 angular

# dump 3 all custom 1000 traj_npt_new.lammpstrj id type x y z
run 50000
Last active /omp style is pair_style eam/alloy/omp
Step Temp Volume Press KinEng PotEng Density
150000     1522.723    25202.992    6305.9314    402.90568   -8284.4972    7.9521665
Averages over the last 26 of 51 rows, steps 175000 to 200000:
Temp Volume Press KinEng PotEng Density
1509.44 25349.4 -493.181 399.391 -8273.93 7.9063
Loop time of 206.625 on 4 procs for 50000 steps with 2048 atoms

unfix temp
unfix out_file_1
unfix 1
# # clear
# write_data after_cooling_$T.in
# write_restart after_cooling_$T.lmp
next loopVar
# # thermo_modify flush yes
jump in.lmp ensemble

print """
Hi HI Hi
"""

Hi HI Hi

variable T equal 2500-11*100
# velocity all create $T 123123
reset_timestep 0
fix 1 all npt temp $T $T $(dt*100) iso 0 0 $(dt*1000)
fix 1 all npt temp 1400 $T $(dt*100) iso 0 0 $(dt*1000)
fix 1 all npt temp 1400 1400 $(dt*100) iso 0 0 $(dt*1000)
fix 1 all npt temp 1400 1400 0.10000000000000000555 iso 0 0 $(dt*1000)
fix 1 all npt temp 1400 1400 0.10000000000000000555 iso 0 0 1
print """
<--------------------------------------------------------------------->
<------------------ Equilibrating at temperature $T ----------------->
<--------------------------------------------------------------------->
"""

<--------------------------------------------------------------------->
<------------------ Equilibrating at temperature 1400 ----------------->
<--------------------------------------------------------------------->

run 150000
Last active /omp style is pair_style eam/alloy/omp
Step Temp Volume Press KinEng PotEng Density
0    1515.6442     25305.99    3126.4183    401.03267   -8273.0433    7.9198002
Averages over the last 76 of 151 rows, steps 75000 to 150000:
Temp Volume Press KinEng PotEng Density
1402.85 25161.9 170.681 371.188 -8319.31 7.96522
Loop time of 620.528 on 4 procs for 150000 steps with 2048 atoms

# fix 132 all momentum 100 linear 1 1 1 angular

# dump 3 all custom 1000 traj_npt_new.lammpstrj id type x y z
run 50000
Last active /omp style is pair_style eam/alloy/omp
Step Temp Volume Press KinEng PotEng Density
150000    1399.5681     25080.72    2393.7574    370.31943   -8334.0101    7.9909344
Averages over the last 26 of 51 rows, steps 175000 to 200000:
Temp Volume Press KinEng PotEng Density
1390.15 25162.1 238.675 367.829 -8318.2 7.96512
Loop time of 208.639 on 4 procs for 50000 steps with 2048 atoms

unfix temp
unfix out_file_1
unfix 1
# # clear
# write_data after_cooling_$T.in
# write_restart after_cooling_$T.lmp
next loopVar
# # thermo_modify flush yes
jump in.lmp ensemble

print """
Hi HI Hi
"""

Hi HI Hi

variable T equal 2500-12*100
# velocity all create $T 123123
reset_timestep 0
fix 1 all npt temp $T $T $(dt*100) iso 0 0 $(dt*1000)
fix 1 all npt temp 1300 $T $(dt*100) iso 0 0 $(dt*1000)
fix 1 all npt temp 1300 1300 $(dt*100) iso 0 0 $(dt*1000)
fix 1 all npt temp 1300 1300 0.10000000000000000555 iso 0 0 $(dt*1000)
fix 1 all npt temp 1300 1300 0.10000000000000000555 iso 0 0 1
print """
<--------------------------------------------------------------------->
<------------------ Equilibrating at temperature $T ----------------->
<--------------------------------------------------------------------->
"""

<--------------------------------------------------------------------->
<------------------ Equilibrating at temperature 1300 ----------------->
<--------------------------------------------------------------------->

run 150000
Last active /omp style is pair_style eam/alloy/omp
Step Temp Volume Press KinEng PotEng Density
0     1396.736    25163.403   -1589.8746    369.57008   -8327.4666    7.9646773
Averages over the last 76 of 151 rows, steps 75000 to 150000:
Temp Volume Press KinEng PotEng Density
1300.84 24987.6 -247.995 344.196 -8365.64 8.02077
Loop time of 627.994 on 4 procs for 150000 steps with 2048 atoms

# fix 132 all momentum 100 linear 1 1 1 angular

# dump 3 all custom 1000 traj_npt_new.lammpstrj id type x y z
run 50000
Last active /omp style is pair_style eam/alloy/omp
Step Temp Volume Press KinEng PotEng Density
150000    1290.3361    24934.241    3564.6558    341.41714    -8363.929     8.037878
Averages over the last 26 of 51 rows, steps 175000 to 200000:
Temp Volume Press KinEng PotEng Density
1300.01 24972.4 826.022 343.976 -8365.59 8.02566
Loop time of 209.732 on 4 procs for 50000 steps with 2048 atoms

unfix temp
unfix out_file_1
unfix 1
# # clear
# write_data after_cooling_$T.in
# write_restart after_cooling_$T.lmp
next loopVar
# # thermo_modify flush yes
jump in.lmp ensemble

print """
Hi HI Hi
"""

Hi HI Hi

variable T equal 2500-13*100
# velocity all create $T 123123
reset_timestep 0
fix 1 all npt temp $T $T $(dt*100) iso 0 0 $(dt*1000)
fix 1 all npt temp 1200 $T $(dt*100) iso 0 0 $(dt*1000)
fix 1 all npt temp 1200 1200 $(dt*100) iso 0 0 $(dt*1000)
fix 1 all npt temp 1200 1200 0.10000000000000000555 iso 0 0 $(dt*1000)
fix 1 all npt temp 1200 1200 0.10000000000000000555 iso 0 0 1
print """
<--------------------------------------------------------------------->
<------------------ Equilibrating at temperature $T ----------------->
<--------------------------------------------------------------------->
"""

<--------------------------------------------------------------------->
<------------------ Equilibrating at temperature 1200 ----------------->
<--------------------------------------------------------------------->

run 150000
Last active /omp style is pair_style eam/alloy/omp
Step Temp Volume Press KinEng PotEng Density
0    1274.2239    24953.787    119.01826    337.15392     -8371.52    8.0315819
Averages over the last 76 of 151 rows, steps 75000 to 150000:
Temp Volume Press KinEng PotEng Density
1195.38 24792.4 -975.98 316.293 -8420.12 8.0839
Loop time of 628.587 on 4 procs for 150000 steps with 2048 atoms

# fix 132 all momentum 100 linear 1 1 1 angular

# dump 3 all custom 1000 traj_npt_new.lammpstrj id type x y z
run 50000
Last active /omp style is pair_style eam/alloy/omp
Step Temp Volume Press KinEng PotEng Density
150000    1206.7007    24661.529    3083.8954    319.28759    -8437.936    8.1267623
Averages over the last 26 of 51 rows, steps 175000 to 200000:
Temp Volume Press KinEng PotEng Density
1195.23 24171.3 -2353.2 316.253 -8600.86 8.29165
Loop time of 213.382 on 4 procs for 50000 steps with 2048 atoms

unfix temp
unfix out_file_1
unfix 1
# # clear
# write_data after_cooling_$T.in
# write_restart after_cooling_$T.lmp
next loopVar
# # thermo_modify flush yes
jump in.lmp ensemble

print """
Hi HI Hi
"""

Hi HI Hi

variable T equal 2500-14*100
# velocity all create $T 123123
reset_timestep 0
fix 1 all npt temp $T $T $(dt*100) iso 0 0 $(dt*1000)
fix 1 all npt temp 1100 $T $(dt*100) iso 0 0 $(dt*1000)
fix 1 all npt temp 1100 1100 $(dt*100) iso 0 0 $(dt*1000)
fix 1 all npt temp 1100 1100 0.10000000000000000555 iso 0 0 $(dt*1000)
fix 1 all npt temp 1100 1100 0.10000000000000000555 iso 0 0 1
print """
<--------------------------------------------------------------------->
<------------------ Equilibrating at temperature $T ----------------->
<--------------------------------------------------------------------->
"""

<--------------------------------------------------------------------->
<------------------ Equilibrating at temperature 1100 ----------------->
<--------------------------------------------------------------------->

run 150000
Last active /omp style is pair_style eam/alloy/omp
Step Temp Volume Press KinEng PotEng Density
0    1174.9548    24042.823    4455.6569    310.88777   -8608.3805    8.3358925
Averages over the last 76 of 151 rows, steps 75000 to 150000:
Temp Volume Press KinEng PotEng Density
1097.72 23984 -308.352 290.451 -8643.7 8.35636
Loop time of 643.779 on 4 procs for 150000 steps with 2048 atoms

# fix 132 all momentum 100 linear 1 1 1 angular

# dump 3 all custom 1000 traj_npt_new.lammpstrj id type x y z
run 50000
Last active /omp style is pair_style eam/alloy/omp
Step Temp Volume Press KinEng PotEng Density
150000    1070.5621    23979.565   -1901.0296    283.26594   -8650.6102    8.3578826
Averages over the last 26 of 51 rows, steps 175000 to 200000:
Temp Volume Press KinEng PotEng Density
1098.81 23980.1 -85.3479 290.74 -8644.17 8.35773
Loop time of 211.509 on 4 procs for 50000 steps with 2048 atoms

unfix temp
unfix out_file_1
unfix 1
# # clear
# write_data after_cooling_$T.in
# write_restart after_cooling_$T.lmp
next loopVar
# # thermo_modify flush yes
jump in.lmp ensemble

print """
Hi HI Hi
"""

Hi HI Hi

variable T equal 2500-15*100
# velocity all create $T 123123
reset_timestep 0
fix 1 all npt temp $T $T $(dt*100) iso 0 0 $(dt*1000)
fix 1 all npt temp 1000 $T $(dt*100) iso 0 0 $(dt*1000)
fix 1 all npt temp 1000 1000 $(dt*100) iso 0 0 $(dt*1000)
fix 1 all npt temp 1000 1000 0.10000000000000000555 iso 0 0 $(dt*1000)
fix 1 all npt temp 1000 1000 0.10000000000000000555 iso 0 0 1
print """
<--------------------------------------------------------------------->
<------------------ Equilibrating at temperature $T ----------------->
<--------------------------------------------------------------------->
"""

<--------------------------------------------------------------------->
<------------------ Equilibrating at temperature 1000 ----------------->
<--------------------------------------------------------------------->

run 150000
Last active /omp style is pair_style eam/alloy/omp
Step Temp Volume Press KinEng PotEng Density
0    1061.7909    23945.523    2606.9848    280.94512   -8643.9004    8.3697646
Averages over the last 76 of 151 rows, steps 75000 to 150000:
Temp Volume Press KinEng PotEng Density
1005.45 23866 -418.571 266.038 -8677.05 8.39768
Loop time of 628.628 on 4 procs for 150000 steps with 2048 atoms

# fix 132 all momentum 100 linear 1 1 1 angular

# dump 3 all custom 1000 traj_npt_new.lammpstrj id type x y z
run 50000
Last active /omp style is pair_style eam/alloy/omp
Step Temp Volume Press KinEng PotEng Density
150000    1027.5042    23883.827   -2105.4131    271.87301   -8679.5257    8.3913851
Averages over the last 26 of 51 rows, steps 175000 to 200000:
Temp Volume Press KinEng PotEng Density
998.206 23869.3 -388.455 264.121 -8675.83 8.39652
Loop time of 210.44 on 4 procs for 50000 steps with 2048 atoms

unfix temp
unfix out_file_1
unfix 1
# # clear
# write_data after_cooling_$T.in
# write_restart after_cooling_$T.lmp
next loopVar
# # thermo_modify flush yes
jump in.lmp ensemble

print """
Hi HI Hi
"""

Hi HI Hi

variable T equal 2500-16*100
# velocity all create $T 123123
reset_timestep 0
fix 1 all npt temp $T $T $(dt*100) iso 0 0 $(dt*1000)
fix 1 all npt temp 900 $T $(dt*100) iso 0 0 $(dt*1000)
fix 1 all npt temp 900 900 $(dt*100) iso 0 0 $(dt*1000)
fix 1 all npt temp 900 900 0.10000000000000000555 iso 0 0 $(dt*1000)
fix 1 all npt temp 900 900 0.10000000000000000555 iso 0 0 1
print """
<--------------------------------------------------------------------->
<------------------ Equilibrating at temperature $T ----------------->
<--------------------------------------------------------------------->
"""

<--------------------------------------------------------------------->
<------------------ Equilibrating at temperature 900 ----------------->
<--------------------------------------------------------------------->

run 150000
Last active /omp style is pair_style eam/alloy/omp
Step Temp Volume Press KinEng PotEng Density
0    1009.5889    23888.096   -3041.9086    267.13269   -8682.3177    8.3898854
Averages over the last 76 of 151 rows, steps 75000 to 150000:
Temp Volume Press KinEng PotEng Density
898.257 23746.4 288.312 237.675 -8707.62 8.43997
Loop time of 624.065 on 4 procs for 150000 steps with 2048 atoms

# fix 132 all momentum 100 linear 1 1 1 angular

# dump 3 all custom 1000 traj_npt_new.lammpstrj id type x y z
run 50000
Last active /omp style is pair_style eam/alloy/omp
Step Temp Volume Press KinEng PotEng Density
150000    894.85915    23715.504     1632.072    236.77572   -8711.6191    8.4509436
Averages over the last 26 of 51 rows, steps 175000 to 200000:
Temp Volume Press KinEng PotEng Density
899.328 23748.8 99.746 237.958 -8708.1 8.43912
Loop time of 208.234 on 4 procs for 50000 steps with 2048 atoms

unfix temp
unfix out_file_1
unfix 1
# # clear
# write_data after_cooling_$T.in
# write_restart after_cooling_$T.lmp
next loopVar
# # thermo_modify flush yes
jump in.lmp ensemble

print """
Hi HI Hi
"""

Hi HI Hi

variable T equal 2500-17*100
# velocity all create $T 123123
reset_timestep 0
fix 1 all npt temp $T $T $(dt*100) iso 0 0 $(dt*1000)
fix 1 all npt temp 800 $T $(dt*100) iso 0 0 $(dt*1000)
fix 1 all npt temp 800 800 $(dt*100) iso 0 0 $(dt*1000)
fix 1 all npt temp 800 800 0.10000000000000000555 iso 0 0 $(dt*1000)
fix 1 all npt temp 800 800 0.10000000000000000555 iso 0 0 1
print """
<--------------------------------------------------------------------->
<------------------ Equilibrating at temperature $T ----------------->
<--------------------------------------------------------------------->
"""

<--------------------------------------------------------------------->
<------------------ Equilibrating at temperature 800 ----------------->
<--------------------------------------------------------------------->

run 150000
Last active /omp style is pair_style eam/alloy/omp
Step Temp Volume Press KinEng PotEng Density
0    899.35696    23715.807    2483.3867    237.96582   -8709.8246    8.4508355
Averages over the last 76 of 151 rows, steps 75000 to 150000:
Temp Volume Press KinEng PotEng Density
800.802 23637.5 64.3863 211.889 -8739.77 8.47887
Loop time of 620.792 on 4 procs for 150000 steps with 2048 atoms

# fix 132 all momentum 100 linear 1 1 1 angular

# dump 3 all custom 1000 traj_npt_new.lammpstrj id type x y z
run 50000
Last active /omp style is pair_style eam/alloy/omp
Step Temp Volume Press KinEng PotEng Density
150000     790.0188    23673.152   -1739.4502    209.03543   -8735.6125    8.4660625
Averages over the last 26 of 51 rows, steps 175000 to 200000:
Temp Volume Press KinEng PotEng Density
802.982 23641.6 -189.918 212.466 -8739.55 8.47737
Loop time of 208.329 on 4 procs for 50000 steps with 2048 atoms

unfix temp
unfix out_file_1
unfix 1
# # clear
# write_data after_cooling_$T.in
# write_restart after_cooling_$T.lmp
next loopVar
# # thermo_modify flush yes
jump in.lmp ensemble

print """
Hi HI Hi
"""

Hi HI Hi

variable T equal 2500-18*100
# velocity all create $T 123123
reset_timestep 0
fix 1 all npt temp $T $T $(dt*100) iso 0 0 $(dt*1000)
fix 1 all npt temp 700 $T $(dt*100) iso 0 0 $(dt*1000)
fix 1 all npt temp 700 700 $(dt*100) iso 0 0 $(dt*1000)
fix 1 all npt temp 700 700 0.10000000000000000555 iso 0 0 $(dt*1000)
fix 1 all npt temp 700 700 0.10000000000000000555 iso 0 0 1
print """
<--------------------------------------------------------------------->
<------------------ Equilibrating at temperature $T ----------------->
<--------------------------------------------------------------------->
"""

<--------------------------------------------------------------------->
<------------------ Equilibrating at temperature 700 ----------------->
<--------------------------------------------------------------------->

run 150000
Last active /omp style is pair_style eam/alloy/omp
Step Temp Volume Press KinEng PotEng Density
0    819.09979    23600.827     2249.508    216.73013    -8741.437     8.492007
Averages over the last 76 of 151 rows, steps 75000 to 150000:
Temp Volume Press KinEng PotEng Density
697.481 23532.8 117.308 184.55 -8769.15 8.51659
Loop time of 624.95 on 4 procs for 150000 steps with 2048 atoms

# fix 132 all momentum 100 linear 1 1 1 angular

# dump 3 all custom 1000 traj_npt_new.lammpstrj id type x y z
run 50000
Last active /omp style is pair_style eam/alloy/omp
Step Temp Volume Press KinEng PotEng Density
150000    682.81718    23541.797   -1140.8999    180.67036   -8772.4415    8.5133003
Averages over the last 26 of 51 rows, steps 175000 to 200000:
Temp Volume Press KinEng PotEng Density
703.683 23511.5 1638.57 186.191 -8769.93 8.52428
Loop time of 207.52 on 4 procs for 50000 steps with 2048 atoms

unfix temp
unfix out_file_1
unfix 1
# # clear
# write_data after_cooling_$T.in
# write_restart after_cooling_$T.lmp
next loopVar
# # thermo_modify flush yes
jump in.lmp ensemble

print """
Hi HI Hi
"""

Hi HI Hi

variable T equal 2500-19*100
# velocity all create $T 123123
reset_timestep 0
fix 1 all npt temp $T $T $(dt*100) iso 0 0 $(dt*1000)
fix 1 all npt temp 600 $T $(dt*100) iso 0 0 $(dt*1000)
fix 1 all npt temp 600 600 $(dt*100) iso 0 0 $(dt*1000)
fix 1 all npt temp 600 600 0.10000000000000000555 iso 0 0 $(dt*1000)
fix 1 all npt temp 600 600 0.10000000000000000555 iso 0 0 1
print """
<--------------------------------------------------------------------->
<------------------ Equilibrating at temperature $T ----------------->
<--------------------------------------------------------------------->
"""

<--------------------------------------------------------------------->
<------------------ Equilibrating at temperature 600 ----------------->
<--------------------------------------------------------------------->

run 150000
Last active /omp style is pair_style eam/alloy/omp
Step Temp Volume Press KinEng PotEng Density
0    704.80043    23500.229    4349.7032    186.48703   -8762.3069    8.5283587
Averages over the last 76 of 151 rows, steps 75000 to 150000:
Temp Volume Press KinEng PotEng Density
598.558 23431 44.8625 158.376 -8798.73 8.55358
Loop time of 618.622 on 4 procs for 150000 steps with 2048 atoms

# fix 132 all momentum 100 linear 1 1 1 angular

# dump 3 all custom 1000 traj_npt_new.lammpstrj id type x y z
run 50000
Last active /omp style is pair_style eam/alloy/omp
Step Temp Volume Press KinEng PotEng Density
150000    590.20544    23474.761   -2808.3259    156.16571   -8796.2135    8.5376115
Averages over the last 26 of 51 rows, steps 175000 to 200000:
Temp Volume Press KinEng PotEng Density
600.21 23425.4 355.703 158.813 -8799.47 8.55562
Loop time of 206.628 on 4 procs for 50000 steps with 2048 atoms

unfix temp
unfix out_file_1
unfix 1
# # clear
# write_data after_cooling_$T.in
# write_restart after_cooling_$T.lmp
next loopVar
# # thermo_modify flush yes
jump in.lmp ensemble

print """
Hi HI Hi
"""

Hi HI Hi

variable T equal 2500-20*100
# velocity all create $T 123123
reset_timestep 0
fix 1 all npt temp $T $T $(dt*100) iso 0 0 $(dt*1000)
fix 1 all npt temp 500 $T $(dt*100) iso 0 0 $(dt*1000)
fix 1 all npt temp 500 500 $(dt*100) iso 0 0 $(dt*1000)
fix 1 all npt temp 500 500 0.10000000000000000555 iso 0 0 $(dt*1000)
fix 1 all npt temp 500 500 0.10000000000000000555 iso 0 0 1
print """
<--------------------------------------------------------------------->
<------------------ Equilibrating at temperature $T ----------------->
<--------------------------------------------------------------------->
"""

<--------------------------------------------------------------------->
<------------------ Equilibrating at temperature 500 ----------------->
<--------------------------------------------------------------------->

run 150000
Last active /omp style is pair_style eam/alloy/omp
Step Temp Volume Press KinEng PotEng Density
0    603.67917    23420.187    310.14614     159.7308   -8800.3152    8.5575057
Averages over the last 76 of 151 rows, steps 75000 to 150000:
Temp Volume Press KinEng PotEng Density
500.12 23330.2 79.967 132.33 -8828.4 8.59053
Loop time of 617.5 on 4 procs for 150000 steps with 2048 atoms

# fix 132 all momentum 100 linear 1 1 1 angular

# dump 3 all custom 1000 traj_npt_new.lammpstrj id type x y z
run 50000
Last active /omp style is pair_style eam/alloy/omp
Step Temp Volume Press KinEng PotEng Density
150000    497.61437    23305.936    2167.1015    131.66653   -8827.3305    8.5994568
Averages over the last 26 of 51 rows, steps 175000 to 200000:
Temp Volume Press KinEng PotEng Density
498.496 23328.3 62.6127 131.9 -8828.72 8.59122
Loop time of 208.788 on 4 procs for 50000 steps with 2048 atoms

unfix temp
unfix out_file_1
unfix 1
# # clear
# write_data after_cooling_$T.in
# write_restart after_cooling_$T.lmp
next loopVar
# # thermo_modify flush yes
jump in.lmp ensemble

print """
Hi HI Hi
"""

Hi HI Hi

variable T equal 2500-21*100
# velocity all create $T 123123
reset_timestep 0
fix 1 all npt temp $T $T $(dt*100) iso 0 0 $(dt*1000)
fix 1 all npt temp 400 $T $(dt*100) iso 0 0 $(dt*1000)
fix 1 all npt temp 400 400 $(dt*100) iso 0 0 $(dt*1000)
fix 1 all npt temp 400 400 0.10000000000000000555 iso 0 0 $(dt*1000)
fix 1 all npt temp 400 400 0.10000000000000000555 iso 0 0 1
print """
<--------------------------------------------------------------------->
<------------------ Equilibrating at temperature $T ----------------->
<--------------------------------------------------------------------->
"""

<--------------------------------------------------------------------->
<------------------ Equilibrating at temperature 400 ----------------->
<--------------------------------------------------------------------->

run 150000
Last active /omp style is pair_style eam/alloy/omp
Loop time of 615.996 on 4 procs for 150000 steps with 2048 atoms

# fix 132 all momentum 100 linear 1 1 1 angular

# dump 3 all custom 1000 traj_npt_new.lammpstrj id type x y z
run 50000
Last active /omp style is pair_style eam/alloy/omp
Loop time of 206.571 on 4 procs for 50000 steps with 2048 atoms

unfix temp
unfix out_file_1
unfix 1
# # clear
# write_data after_cooling_$T.in
# write_restart after_cooling_$T.lmp
next loopVar
# # thermo_modify flush yes
jump in.lmp ensemble

print """
Hi HI Hi
"""

Hi HI Hi

variable T equal 2500-22*100
# velocity all create $T 123123
reset_timestep 0
fix 1 all npt temp $T $T $(dt*100) iso 0 0 $(dt*1000)
fix 1 all npt temp 300 $T $(dt*100) iso 0 0 $(dt*1000)
fix 1 all npt temp 300 300 $(dt*100) iso 0 0 $(dt*1000)
fix 1 all npt temp 300 300 0.10000000000000000555 iso 0 0 $(dt*1000)
fix 1 all npt temp 300 300 0.10000000000000000555 iso 0 0 1
print """
<--------------------------------------------------------------------->
<------------------ Equilibrating at temperature $T ----------------->
<--------------------------------------------------------------------->
"""

<--------------------------------------------------------------------->
<------------------ Equilibrating at temperature 300 ----------------->
<--------------------------------------------------------------------->

run 150000
Last active /omp style is pair_style eam/alloy/omp
Loop time of 618.551 on 4 procs for 150000 steps with 2048 atoms

# fix 132 all momentum 100 linear 1 1 1 angular

# dump 3 all custom 1000 traj_npt_new.lammpstrj id type x y z
run 50000
Last active /omp style is pair_style eam/alloy/omp
Loop time of 206.347 on 4 procs for 50000 steps with 2048 atoms

unfix temp
unfix out_file_1
unfix 1
# # clear
# write_data after_cooling_$T.in
# write_restart after_cooling_$T.lmp
next loopVar
# # thermo_modify flush yes
jump in.lmp ensemble
# jump ensemble

write_data after_cooling_$T_.in
write_data after_cooling_300_.in
System init for write_data ...
Last active /omp style is pair_style eam/alloy/omp
write_restart after_cooling_$T.lmp
write_restart after_cooling_300.lmp
System init for write_restart ...
Last active /omp style is pair_style eam/alloy/omp
