LAMMPS (29 Oct 2020)
package omp 0
using multi-threaded neighbor list subroutines
package omp 2
set 2 OpenMP thread(s) per MPI task
using multi-threaded neighbor list subroutines
# units metal
# dimension 3
# boundary p p p

# lattice fcc 3.5440
# region box block 0 8 0 8 0 8 units lattice
# create_box 1 box
# create_atoms 1 box

read_restart after_heating_2400.lmp
Reading restart file ...
  restart file = 29 Oct 2020, LAMMPS = 29 Oct 2020
  restoring atom style atomic from restart
  orthogonal box = (-0.82957126 -0.82957126 -0.82957126) to (29.181571 29.181571 29.181571)
  pair style eam/alloy/omp stores no restart info
  2048 atoms
  read_restart CPU = 0.002 seconds

variable P equal 0
variable dt equal 0.001
variable loopVar loop 22
variable sys_press equal "press/10000"
# print "step temp vol pe" file heating.txt screen no

pair_style eam/alloy
pair_coeff * * Co_Zhou04.eam.alloy Co
Reading eam/alloy potential file Co_Zhou04.eam.alloy with DATE: 2018-03-30

neighbor 2 bin
neigh_modify every 10 check yes

thermo 1000
thermo_style custom step temp vol press ke pe density

timestep $(dt)
timestep 0.0010000000000000000208

# fix 2 all npt temp 300 300 $(dt*100) iso 0 0 $(dt*1000)
# run 30000
# unfix 2

# dump_modify 1 append yes
# dump 3 all custom 10000 traj_npt_new.lammpstrj id type x y z

# velocity all create 300 123123

print """
yo aagadi
"""

yo aagadi

label ensemble

print """
Label pachadi solti, hos garam.
"""

Label pachadi solti, hos garam.

variable T equal 2500-1*100
# variable T equal 1200
# velocity all create 1200 123123
reset_timestep 0
fix 1 all npt temp $T $T $(dt*100) iso 0 0 $(dt*1000)
fix 1 all npt temp 2400 $T $(dt*100) iso 0 0 $(dt*1000)
fix 1 all npt temp 2400 2400 $(dt*100) iso 0 0 $(dt*1000)
fix 1 all npt temp 2400 2400 0.10000000000000000555 iso 0 0 $(dt*1000)
fix 1 all npt temp 2400 2400 0.10000000000000000555 iso 0 0 1
  fix style: npt/omp, fix ID: 1
print """
<--------------------------------------------------------------------->
<------------------ Equilibrating at temperature $T ----------------->
<--------------------------------------------------------------------->
"""

<--------------------------------------------------------------------->
<------------------ Equilibrating at temperature 2400 ----------------->
<--------------------------------------------------------------------->

run 250000
All restart file global fix info was re-assigned
Last active /omp style is pair_style eam/alloy/omp
  update every 10 steps, delay 10 steps, check yes
Step Temp Volume Press KinEng PotEng Density
0    2418.0858    27030.096   -2895.4286    639.81467   -7882.8419    7.4146384
Averages over the last 126 of 251 rows, steps 125000 to 250000:
Temp Volume Press KinEng PotEng Density
2397.02 26933.7 329.401 634.241 -7892.45 7.44129
Loop time of 475.3 on 8 procs for 250000 steps with 2048 atoms

# fix 132 all momentum 100 linear 1 1 1 angular

# dump 3 all custom 1000 traj_npt_new.lammpstrj id type x y z
run 50000
Last active /omp style is pair_style eam/alloy/omp
Step Temp Volume Press KinEng PotEng Density
250000    2448.4088    26974.236   -2935.7555      647.838   -7898.8713     7.429993
Averages over the last 26 of 51 rows, steps 275000 to 300000:
Temp Volume Press KinEng PotEng Density
2400.88 26975.9 -642.157 635.262 -7886.66 7.4296
Loop time of 100.241 on 8 procs for 50000 steps with 2048 atoms

unfix temp
unfix out_file_1
# unfix 1
# # clear
write_data after_cooling_$T.in
write_data after_cooling_2400.in
System init for write_data ...
Last active /omp style is pair_style eam/alloy/omp
write_restart after_cooling_$T.lmp
write_restart after_cooling_2400.lmp
System init for write_restart ...
Last active /omp style is pair_style eam/alloy/omp
next loopVar
# # # thermo_modify flush yes
jump in.lmp ensemble

print """
Label pachadi solti, hos garam.
"""

Label pachadi solti, hos garam.

variable T equal 2500-2*100
# variable T equal 1200
# velocity all create 1200 123123
reset_timestep 0
fix 1 all npt temp $T $T $(dt*100) iso 0 0 $(dt*1000)
fix 1 all npt temp 2300 $T $(dt*100) iso 0 0 $(dt*1000)
fix 1 all npt temp 2300 2300 $(dt*100) iso 0 0 $(dt*1000)
fix 1 all npt temp 2300 2300 0.10000000000000000555 iso 0 0 $(dt*1000)
fix 1 all npt temp 2300 2300 0.10000000000000000555 iso 0 0 1
print """
<--------------------------------------------------------------------->
<------------------ Equilibrating at temperature $T ----------------->
<--------------------------------------------------------------------->
"""

<--------------------------------------------------------------------->
<------------------ Equilibrating at temperature 2300 ----------------->
<--------------------------------------------------------------------->

run 250000
Last active /omp style is pair_style eam/alloy/omp
Step Temp Volume Press KinEng PotEng Density
0    2422.4565    26987.966    750.88022    640.97113   -7878.4515     7.426213
Averages over the last 126 of 251 rows, steps 125000 to 250000:
Temp Volume Press KinEng PotEng Density
2299.35 26771.1 15.8129 608.397 -7929.92 7.48646
Loop time of 505.316 on 8 procs for 250000 steps with 2048 atoms

# fix 132 all momentum 100 linear 1 1 1 angular

# dump 3 all custom 1000 traj_npt_new.lammpstrj id type x y z
run 50000
Last active /omp style is pair_style eam/alloy/omp
Step Temp Volume Press KinEng PotEng Density
250000    2325.4675    26572.476    4735.0411    615.30828   -7955.6532    7.5423303
Averages over the last 26 of 51 rows, steps 275000 to 300000:
Temp Volume Press KinEng PotEng Density
2309.77 26738.5 1629.27 611.154 -7931.57 7.49558
Loop time of 103.614 on 8 procs for 50000 steps with 2048 atoms

unfix temp
unfix out_file_1
# unfix 1
# # clear
write_data after_cooling_$T.in
write_data after_cooling_2300.in
System init for write_data ...
Last active /omp style is pair_style eam/alloy/omp
write_restart after_cooling_$T.lmp
write_restart after_cooling_2300.lmp
System init for write_restart ...
Last active /omp style is pair_style eam/alloy/omp
next loopVar
# # # thermo_modify flush yes
jump in.lmp ensemble

print """
Label pachadi solti, hos garam.
"""

Label pachadi solti, hos garam.

variable T equal 2500-3*100
# variable T equal 1200
# velocity all create 1200 123123
reset_timestep 0
fix 1 all npt temp $T $T $(dt*100) iso 0 0 $(dt*1000)
fix 1 all npt temp 2200 $T $(dt*100) iso 0 0 $(dt*1000)
fix 1 all npt temp 2200 2200 $(dt*100) iso 0 0 $(dt*1000)
fix 1 all npt temp 2200 2200 0.10000000000000000555 iso 0 0 $(dt*1000)
fix 1 all npt temp 2200 2200 0.10000000000000000555 iso 0 0 1
print """
<--------------------------------------------------------------------->
<------------------ Equilibrating at temperature $T ----------------->
<--------------------------------------------------------------------->
"""

<--------------------------------------------------------------------->
<------------------ Equilibrating at temperature 2200 ----------------->
<--------------------------------------------------------------------->

run 250000
Last active /omp style is pair_style eam/alloy/omp
Step Temp Volume Press KinEng PotEng Density
0    2342.8878    26820.764    2644.4378     619.9176   -7911.8289    7.4725086
Averages over the last 126 of 251 rows, steps 125000 to 250000:
Temp Volume Press KinEng PotEng Density
2202.6 26590.1 -267.426 582.797 -7973.66 7.53741
Loop time of 505.558 on 8 procs for 250000 steps with 2048 atoms

# fix 132 all momentum 100 linear 1 1 1 angular

# dump 3 all custom 1000 traj_npt_new.lammpstrj id type x y z
run 50000
Last active /omp style is pair_style eam/alloy/omp
Step Temp Volume Press KinEng PotEng Density
250000    2284.6364    26497.516    6400.5718    604.50454    -7968.885    7.5636671
Averages over the last 26 of 51 rows, steps 275000 to 300000:
Temp Volume Press KinEng PotEng Density
2198.73 26605.8 -244.636 581.775 -7966.59 7.53296
Loop time of 102.173 on 8 procs for 50000 steps with 2048 atoms

unfix temp
unfix out_file_1
# unfix 1
# # clear
write_data after_cooling_$T.in
write_data after_cooling_2200.in
System init for write_data ...
Last active /omp style is pair_style eam/alloy/omp
write_restart after_cooling_$T.lmp
write_restart after_cooling_2200.lmp
System init for write_restart ...
Last active /omp style is pair_style eam/alloy/omp
next loopVar
# # # thermo_modify flush yes
jump in.lmp ensemble

print """
Label pachadi solti, hos garam.
"""

Label pachadi solti, hos garam.

variable T equal 2500-4*100
# variable T equal 1200
# velocity all create 1200 123123
reset_timestep 0
fix 1 all npt temp $T $T $(dt*100) iso 0 0 $(dt*1000)
fix 1 all npt temp 2100 $T $(dt*100) iso 0 0 $(dt*1000)
fix 1 all npt temp 2100 2100 $(dt*100) iso 0 0 $(dt*1000)
fix 1 all npt temp 2100 2100 0.10000000000000000555 iso 0 0 $(dt*1000)
fix 1 all npt temp 2100 2100 0.10000000000000000555 iso 0 0 1
print """
<--------------------------------------------------------------------->
<------------------ Equilibrating at temperature $T ----------------->
<--------------------------------------------------------------------->
"""

<--------------------------------------------------------------------->
<------------------ Equilibrating at temperature 2100 ----------------->
<--------------------------------------------------------------------->

run 250000
Last active /omp style is pair_style eam/alloy/omp
Step Temp Volume Press KinEng PotEng Density
0    2231.6247    26661.739    1201.8794    590.47789   -7944.5076    7.5170785
Averages over the last 126 of 251 rows, steps 125000 to 250000:
Temp Volume Press KinEng PotEng Density
2105.43 26416.2 34.3211 557.088 -8012.2 7.58702
Loop time of 510.709 on 8 procs for 250000 steps with 2048 atoms

# fix 132 all momentum 100 linear 1 1 1 angular

# dump 3 all custom 1000 traj_npt_new.lammpstrj id type x y z
run 50000
Last active /omp style is pair_style eam/alloy/omp
Step Temp Volume Press KinEng PotEng Density
250000    2043.0049    26504.135   -2258.3815    540.56994   -8000.3928    7.5617782
Averages over the last 26 of 51 rows, steps 275000 to 300000:
Temp Volume Press KinEng PotEng Density
2098.8 26412.2 84.7557 555.333 -8014 7.5882
Loop time of 100.653 on 8 procs for 50000 steps with 2048 atoms

unfix temp
unfix out_file_1
# unfix 1
# # clear
write_data after_cooling_$T.in
write_data after_cooling_2100.in
System init for write_data ...
Last active /omp style is pair_style eam/alloy/omp
write_restart after_cooling_$T.lmp
write_restart after_cooling_2100.lmp
System init for write_restart ...
Last active /omp style is pair_style eam/alloy/omp
next loopVar
# # # thermo_modify flush yes
jump in.lmp ensemble

print """
Label pachadi solti, hos garam.
"""

Label pachadi solti, hos garam.

variable T equal 2500-5*100
# variable T equal 1200
# velocity all create 1200 123123
reset_timestep 0
fix 1 all npt temp $T $T $(dt*100) iso 0 0 $(dt*1000)
fix 1 all npt temp 2000 $T $(dt*100) iso 0 0 $(dt*1000)
fix 1 all npt temp 2000 2000 $(dt*100) iso 0 0 $(dt*1000)
fix 1 all npt temp 2000 2000 0.10000000000000000555 iso 0 0 $(dt*1000)
fix 1 all npt temp 2000 2000 0.10000000000000000555 iso 0 0 1
print """
<--------------------------------------------------------------------->
<------------------ Equilibrating at temperature $T ----------------->
<--------------------------------------------------------------------->
"""

<--------------------------------------------------------------------->
<------------------ Equilibrating at temperature 2000 ----------------->
<--------------------------------------------------------------------->

run 250000
Last active /omp style is pair_style eam/alloy/omp
Step Temp Volume Press KinEng PotEng Density
0     2060.836    26362.725    659.82959    545.28797    -8023.989    7.6023395
Averages over the last 126 of 251 rows, steps 125000 to 250000:
Temp Volume Press KinEng PotEng Density
2001.02 26231.4 198.309 529.462 -8054.85 7.64046
Loop time of 513.191 on 8 procs for 250000 steps with 2048 atoms

# fix 132 all momentum 100 linear 1 1 1 angular

# dump 3 all custom 1000 traj_npt_new.lammpstrj id type x y z
run 50000
Last active /omp style is pair_style eam/alloy/omp
Step Temp Volume Press KinEng PotEng Density
250000    2014.1042    26278.366    136.11661    532.92293   -8044.0576    7.6267446
Averages over the last 26 of 51 rows, steps 275000 to 300000:
Temp Volume Press KinEng PotEng Density
1998.84 26228.3 96.899 528.884 -8055.46 7.64141
Loop time of 101.366 on 8 procs for 50000 steps with 2048 atoms

unfix temp
unfix out_file_1
# unfix 1
# # clear
write_data after_cooling_$T.in
write_data after_cooling_2000.in
System init for write_data ...
Last active /omp style is pair_style eam/alloy/omp
write_restart after_cooling_$T.lmp
write_restart after_cooling_2000.lmp
System init for write_restart ...
Last active /omp style is pair_style eam/alloy/omp
next loopVar
# # # thermo_modify flush yes
jump in.lmp ensemble

print """
Label pachadi solti, hos garam.
"""

Label pachadi solti, hos garam.

variable T equal 2500-6*100
# variable T equal 1200
# velocity all create 1200 123123
reset_timestep 0
fix 1 all npt temp $T $T $(dt*100) iso 0 0 $(dt*1000)
fix 1 all npt temp 1900 $T $(dt*100) iso 0 0 $(dt*1000)
fix 1 all npt temp 1900 1900 $(dt*100) iso 0 0 $(dt*1000)
fix 1 all npt temp 1900 1900 0.10000000000000000555 iso 0 0 $(dt*1000)
fix 1 all npt temp 1900 1900 0.10000000000000000555 iso 0 0 1
print """
<--------------------------------------------------------------------->
<------------------ Equilibrating at temperature $T ----------------->
<--------------------------------------------------------------------->
"""

<--------------------------------------------------------------------->
<------------------ Equilibrating at temperature 1900 ----------------->
<--------------------------------------------------------------------->

run 250000
Last active /omp style is pair_style eam/alloy/omp
Step Temp Volume Press KinEng PotEng Density
0    1940.0587    26192.249   -69.649011    513.33085   -8064.7242    7.6518203
Averages over the last 126 of 251 rows, steps 125000 to 250000:
Temp Volume Press KinEng PotEng Density
1897.2 26049.9 502.992 501.992 -8096.55 7.69369
Loop time of 504.215 on 8 procs for 250000 steps with 2048 atoms

# fix 132 all momentum 100 linear 1 1 1 angular

# dump 3 all custom 1000 traj_npt_new.lammpstrj id type x y z
run 50000
Last active /omp style is pair_style eam/alloy/omp
Step Temp Volume Press KinEng PotEng Density
250000    1921.9973    25896.953    5399.2442    508.55188   -8113.3214    7.7390721
Averages over the last 26 of 51 rows, steps 275000 to 300000:
Temp Volume Press KinEng PotEng Density
1915.14 26081.5 -801.375 506.737 -8094.84 7.68439
Loop time of 101.614 on 8 procs for 50000 steps with 2048 atoms

unfix temp
unfix out_file_1
# unfix 1
# # clear
write_data after_cooling_$T.in
write_data after_cooling_1900.in
System init for write_data ...
Last active /omp style is pair_style eam/alloy/omp
write_restart after_cooling_$T.lmp
write_restart after_cooling_1900.lmp
System init for write_restart ...
Last active /omp style is pair_style eam/alloy/omp
next loopVar
# # # thermo_modify flush yes
jump in.lmp ensemble

print """
Label pachadi solti, hos garam.
"""

Label pachadi solti, hos garam.

variable T equal 2500-7*100
# variable T equal 1200
# velocity all create 1200 123123
reset_timestep 0
fix 1 all npt temp $T $T $(dt*100) iso 0 0 $(dt*1000)
fix 1 all npt temp 1800 $T $(dt*100) iso 0 0 $(dt*1000)
fix 1 all npt temp 1800 1800 $(dt*100) iso 0 0 $(dt*1000)
fix 1 all npt temp 1800 1800 0.10000000000000000555 iso 0 0 $(dt*1000)
fix 1 all npt temp 1800 1800 0.10000000000000000555 iso 0 0 1
print """
<--------------------------------------------------------------------->
<------------------ Equilibrating at temperature $T ----------------->
<--------------------------------------------------------------------->
"""

<--------------------------------------------------------------------->
<------------------ Equilibrating at temperature 1800 ----------------->
<--------------------------------------------------------------------->

run 250000
Last active /omp style is pair_style eam/alloy/omp
Step Temp Volume Press KinEng PotEng Density
0    1904.7832    26104.412   -935.27839    503.99708   -8091.2577    7.6775676
Averages over the last 126 of 251 rows, steps 125000 to 250000:
Temp Volume Press KinEng PotEng Density
1799.78 25880.3 -187.824 476.213 -8140.41 7.74411
Loop time of 508.078 on 8 procs for 250000 steps with 2048 atoms

# fix 132 all momentum 100 linear 1 1 1 angular

# dump 3 all custom 1000 traj_npt_new.lammpstrj id type x y z
run 50000
Last active /omp style is pair_style eam/alloy/omp
Step Temp Volume Press KinEng PotEng Density
250000    1846.2942    26011.244   -5076.6877    488.52117   -8130.6368    7.7050674
Averages over the last 26 of 51 rows, steps 275000 to 300000:
Temp Volume Press KinEng PotEng Density
1795.5 25875.4 269.251 475.08 -8139.09 7.74556
Loop time of 102.458 on 8 procs for 50000 steps with 2048 atoms

unfix temp
unfix out_file_1
# unfix 1
# # clear
write_data after_cooling_$T.in
write_data after_cooling_1800.in
System init for write_data ...
Last active /omp style is pair_style eam/alloy/omp
write_restart after_cooling_$T.lmp
write_restart after_cooling_1800.lmp
System init for write_restart ...
Last active /omp style is pair_style eam/alloy/omp
next loopVar
# # # thermo_modify flush yes
jump in.lmp ensemble

print """
Label pachadi solti, hos garam.
"""

Label pachadi solti, hos garam.

variable T equal 2500-8*100
# variable T equal 1200
# velocity all create 1200 123123
reset_timestep 0
fix 1 all npt temp $T $T $(dt*100) iso 0 0 $(dt*1000)
fix 1 all npt temp 1700 $T $(dt*100) iso 0 0 $(dt*1000)
fix 1 all npt temp 1700 1700 $(dt*100) iso 0 0 $(dt*1000)
fix 1 all npt temp 1700 1700 0.10000000000000000555 iso 0 0 $(dt*1000)
fix 1 all npt temp 1700 1700 0.10000000000000000555 iso 0 0 1
print """
<--------------------------------------------------------------------->
<------------------ Equilibrating at temperature $T ----------------->
<--------------------------------------------------------------------->
"""

<--------------------------------------------------------------------->
<------------------ Equilibrating at temperature 1700 ----------------->
<--------------------------------------------------------------------->

run 250000
Last active /omp style is pair_style eam/alloy/omp
Step Temp Volume Press KinEng PotEng Density
0    1816.1906    25758.693    5098.5965    480.55588   -8150.6211    7.7806115
Averages over the last 126 of 251 rows, steps 125000 to 250000:
Temp Volume Press KinEng PotEng Density
1698.11 25698.7 -26.4317 449.314 -8184.1 7.79884
Loop time of 508.613 on 8 procs for 250000 steps with 2048 atoms

# fix 132 all momentum 100 linear 1 1 1 angular

# dump 3 all custom 1000 traj_npt_new.lammpstrj id type x y z
run 50000
Last active /omp style is pair_style eam/alloy/omp
Step Temp Volume Press KinEng PotEng Density
250000    1639.0319    25726.485   -100.09798    433.68049   -8170.2647    7.7903525
Averages over the last 26 of 51 rows, steps 275000 to 300000:
Temp Volume Press KinEng PotEng Density
1697.33 25707.5 -154.262 449.105 -8182.35 7.79615
Loop time of 101.551 on 8 procs for 50000 steps with 2048 atoms

unfix temp
unfix out_file_1
# unfix 1
# # clear
write_data after_cooling_$T.in
write_data after_cooling_1700.in
System init for write_data ...
Last active /omp style is pair_style eam/alloy/omp
write_restart after_cooling_$T.lmp
write_restart after_cooling_1700.lmp
System init for write_restart ...
Last active /omp style is pair_style eam/alloy/omp
next loopVar
# # # thermo_modify flush yes
jump in.lmp ensemble

print """
Label pachadi solti, hos garam.
"""

Label pachadi solti, hos garam.

variable T equal 2500-9*100
# variable T equal 1200
# velocity all create 1200 123123
reset_timestep 0
fix 1 all npt temp $T $T $(dt*100) iso 0 0 $(dt*1000)
fix 1 all npt temp 1600 $T $(dt*100) iso 0 0 $(dt*1000)
fix 1 all npt temp 1600 1600 $(dt*100) iso 0 0 $(dt*1000)
fix 1 all npt temp 1600 1600 0.10000000000000000555 iso 0 0 $(dt*1000)
fix 1 all npt temp 1600 1600 0.10000000000000000555 iso 0 0 1
print """
<--------------------------------------------------------------------->
<------------------ Equilibrating at temperature $T ----------------->
<--------------------------------------------------------------------->
"""

<--------------------------------------------------------------------->
<------------------ Equilibrating at temperature 1600 ----------------->
<--------------------------------------------------------------------->

run 250000
Last active /omp style is pair_style eam/alloy/omp
Step Temp Volume Press KinEng PotEng Density
0    1726.1083    25762.987    581.80711    456.72052   -8162.4988    7.7793148
Averages over the last 126 of 251 rows, steps 125000 to 250000:
Temp Volume Press KinEng PotEng Density
1599.4 25532.6 -168.515 423.193 -8225.78 7.84957
Loop time of 507.394 on 8 procs for 250000 steps with 2048 atoms

# fix 132 all momentum 100 linear 1 1 1 angular

# dump 3 all custom 1000 traj_npt_new.lammpstrj id type x y z
run 50000
Last active /omp style is pair_style eam/alloy/omp
Step Temp Volume Press KinEng PotEng Density
250000    1595.6415    25569.561   -3330.1035    422.19959   -8227.0747     7.838163
Averages over the last 26 of 51 rows, steps 275000 to 300000:
Temp Volume Press KinEng PotEng Density
1606.57 25535 3.25806 425.09 -8224.93 7.84885
Loop time of 101.911 on 8 procs for 50000 steps with 2048 atoms

unfix temp
unfix out_file_1
# unfix 1
# # clear
write_data after_cooling_$T.in
write_data after_cooling_1600.in
System init for write_data ...
Last active /omp style is pair_style eam/alloy/omp
write_restart after_cooling_$T.lmp
write_restart after_cooling_1600.lmp
System init for write_restart ...
Last active /omp style is pair_style eam/alloy/omp
next loopVar
# # # thermo_modify flush yes
jump in.lmp ensemble

print """
Label pachadi solti, hos garam.
"""

Label pachadi solti, hos garam.

variable T equal 2500-10*100
# variable T equal 1200
# velocity all create 1200 123123
reset_timestep 0
fix 1 all npt temp $T $T $(dt*100) iso 0 0 $(dt*1000)
fix 1 all npt temp 1500 $T $(dt*100) iso 0 0 $(dt*1000)
fix 1 all npt temp 1500 1500 $(dt*100) iso 0 0 $(dt*1000)
fix 1 all npt temp 1500 1500 0.10000000000000000555 iso 0 0 $(dt*1000)
fix 1 all npt temp 1500 1500 0.10000000000000000555 iso 0 0 1
print """
<--------------------------------------------------------------------->
<------------------ Equilibrating at temperature $T ----------------->
<--------------------------------------------------------------------->
"""

<--------------------------------------------------------------------->
<------------------ Equilibrating at temperature 1500 ----------------->
<--------------------------------------------------------------------->

run 250000
Last active /omp style is pair_style eam/alloy/omp
Step Temp Volume Press KinEng PotEng Density
0    1538.5584    25556.967   -1013.6335    407.09565   -8219.7348    7.8420254
Averages over the last 126 of 251 rows, steps 125000 to 250000:
Temp Volume Press KinEng PotEng Density
1502.39 25347.9 -60.3631 397.526 -8272.14 7.90675
Loop time of 523.252 on 8 procs for 250000 steps with 2048 atoms

# fix 132 all momentum 100 linear 1 1 1 angular

# dump 3 all custom 1000 traj_npt_new.lammpstrj id type x y z
run 50000
Last active /omp style is pair_style eam/alloy/omp
Step Temp Volume Press KinEng PotEng Density
250000     1509.724    25445.613   -6419.5583    399.46619   -8275.5541    7.8763434
Averages over the last 26 of 51 rows, steps 275000 to 300000:
Temp Volume Press KinEng PotEng Density
1503.15 25340.3 -351.724 397.728 -8275.91 7.90913
Loop time of 104.695 on 8 procs for 50000 steps with 2048 atoms

unfix temp
unfix out_file_1
# unfix 1
# # clear
write_data after_cooling_$T.in
write_data after_cooling_1500.in
System init for write_data ...
Last active /omp style is pair_style eam/alloy/omp
write_restart after_cooling_$T.lmp
write_restart after_cooling_1500.lmp
System init for write_restart ...
Last active /omp style is pair_style eam/alloy/omp
next loopVar
# # # thermo_modify flush yes
jump in.lmp ensemble

print """
Label pachadi solti, hos garam.
"""

Label pachadi solti, hos garam.

variable T equal 2500-11*100
# variable T equal 1200
# velocity all create 1200 123123
reset_timestep 0
fix 1 all npt temp $T $T $(dt*100) iso 0 0 $(dt*1000)
fix 1 all npt temp 1400 $T $(dt*100) iso 0 0 $(dt*1000)
fix 1 all npt temp 1400 1400 $(dt*100) iso 0 0 $(dt*1000)
fix 1 all npt temp 1400 1400 0.10000000000000000555 iso 0 0 $(dt*1000)
fix 1 all npt temp 1400 1400 0.10000000000000000555 iso 0 0 1
print """
<--------------------------------------------------------------------->
<------------------ Equilibrating at temperature $T ----------------->
<--------------------------------------------------------------------->
"""

<--------------------------------------------------------------------->
<------------------ Equilibrating at temperature 1400 ----------------->
<--------------------------------------------------------------------->

run 250000
Last active /omp style is pair_style eam/alloy/omp
Step Temp Volume Press KinEng PotEng Density
0    1495.9106    25303.584    218.03836    395.81123   -8285.5138    7.9205534
Averages over the last 126 of 251 rows, steps 125000 to 250000:
Temp Volume Press KinEng PotEng Density
1399.67 25166.8 129.234 370.347 -8317.87 7.96366
Loop time of 558.487 on 8 procs for 250000 steps with 2048 atoms

# fix 132 all momentum 100 linear 1 1 1 angular

# dump 3 all custom 1000 traj_npt_new.lammpstrj id type x y z
run 50000
Last active /omp style is pair_style eam/alloy/omp
Step Temp Volume Press KinEng PotEng Density
250000    1393.1498    25194.059    1401.7385    368.62118   -8303.2517    7.9549858
Averages over the last 26 of 51 rows, steps 275000 to 300000:
Temp Volume Press KinEng PotEng Density
1407.58 25158.2 507.557 372.441 -8318.83 7.9664
Loop time of 101.574 on 8 procs for 50000 steps with 2048 atoms

unfix temp
unfix out_file_1
# unfix 1
# # clear
write_data after_cooling_$T.in
write_data after_cooling_1400.in
System init for write_data ...
Last active /omp style is pair_style eam/alloy/omp
write_restart after_cooling_$T.lmp
write_restart after_cooling_1400.lmp
System init for write_restart ...
Last active /omp style is pair_style eam/alloy/omp
next loopVar
# # # thermo_modify flush yes
jump in.lmp ensemble

print """
Label pachadi solti, hos garam.
"""

Label pachadi solti, hos garam.

variable T equal 2500-12*100
# variable T equal 1200
# velocity all create 1200 123123
reset_timestep 0
fix 1 all npt temp $T $T $(dt*100) iso 0 0 $(dt*1000)
fix 1 all npt temp 1300 $T $(dt*100) iso 0 0 $(dt*1000)
fix 1 all npt temp 1300 1300 $(dt*100) iso 0 0 $(dt*1000)
fix 1 all npt temp 1300 1300 0.10000000000000000555 iso 0 0 $(dt*1000)
fix 1 all npt temp 1300 1300 0.10000000000000000555 iso 0 0 1
print """
<--------------------------------------------------------------------->
<------------------ Equilibrating at temperature $T ----------------->
<--------------------------------------------------------------------->
"""

<--------------------------------------------------------------------->
<------------------ Equilibrating at temperature 1300 ----------------->
<--------------------------------------------------------------------->

run 250000
Last active /omp style is pair_style eam/alloy/omp
Step Temp Volume Press KinEng PotEng Density
0    1416.6883    25024.627     7407.601    374.84936   -8325.5737     8.008846
Averages over the last 126 of 251 rows, steps 125000 to 250000:
Temp Volume Press KinEng PotEng Density
1296.53 24978.9 200.684 343.057 -8366.14 8.02355
Loop time of 512.026 on 8 procs for 250000 steps with 2048 atoms

# fix 132 all momentum 100 linear 1 1 1 angular

# dump 3 all custom 1000 traj_npt_new.lammpstrj id type x y z
run 50000
Last active /omp style is pair_style eam/alloy/omp
Step Temp Volume Press KinEng PotEng Density
250000    1336.1275    25001.095    125.12641    353.53335   -8365.1899    8.0163844
Averages over the last 26 of 51 rows, steps 275000 to 300000:
Temp Volume Press KinEng PotEng Density
1303.27 24987.3 -298.178 344.839 -8366.59 8.02086
Loop time of 101.306 on 8 procs for 50000 steps with 2048 atoms

unfix temp
unfix out_file_1
# unfix 1
# # clear
write_data after_cooling_$T.in
write_data after_cooling_1300.in
System init for write_data ...
Last active /omp style is pair_style eam/alloy/omp
write_restart after_cooling_$T.lmp
write_restart after_cooling_1300.lmp
System init for write_restart ...
Last active /omp style is pair_style eam/alloy/omp
next loopVar
# # # thermo_modify flush yes
jump in.lmp ensemble

print """
Label pachadi solti, hos garam.
"""

Label pachadi solti, hos garam.

variable T equal 2500-13*100
# variable T equal 1200
# velocity all create 1200 123123
reset_timestep 0
fix 1 all npt temp $T $T $(dt*100) iso 0 0 $(dt*1000)
fix 1 all npt temp 1200 $T $(dt*100) iso 0 0 $(dt*1000)
fix 1 all npt temp 1200 1200 $(dt*100) iso 0 0 $(dt*1000)
fix 1 all npt temp 1200 1200 0.10000000000000000555 iso 0 0 $(dt*1000)
fix 1 all npt temp 1200 1200 0.10000000000000000555 iso 0 0 1
print """
<--------------------------------------------------------------------->
<------------------ Equilibrating at temperature $T ----------------->
<--------------------------------------------------------------------->
"""

<--------------------------------------------------------------------->
<------------------ Equilibrating at temperature 1200 ----------------->
<--------------------------------------------------------------------->

run 250000
Last active /omp style is pair_style eam/alloy/omp
Step Temp Volume Press KinEng PotEng Density
0    1298.9856    25030.419   -3139.3245    343.70577   -8365.2225    8.0069928
Averages over the last 126 of 251 rows, steps 125000 to 250000:
Temp Volume Press KinEng PotEng Density
1198.8 24177.8 546.679 317.196 -8583.11 8.28972
Loop time of 497.004 on 8 procs for 250000 steps with 2048 atoms

# fix 132 all momentum 100 linear 1 1 1 angular

# dump 3 all custom 1000 traj_npt_new.lammpstrj id type x y z
run 50000
Last active /omp style is pair_style eam/alloy/omp
Step Temp Volume Press KinEng PotEng Density
250000    1177.3713     24156.81   -1076.5507    311.52716   -8596.9669    8.2965584
Averages over the last 26 of 51 rows, steps 275000 to 300000:
Temp Volume Press KinEng PotEng Density
1209.25 24087.6 2406.85 319.962 -8603.86 8.32042
Loop time of 97.6031 on 8 procs for 50000 steps with 2048 atoms

unfix temp
unfix out_file_1
# unfix 1
# # clear
write_data after_cooling_$T.in
write_data after_cooling_1200.in
System init for write_data ...
Last active /omp style is pair_style eam/alloy/omp
write_restart after_cooling_$T.lmp
write_restart after_cooling_1200.lmp
System init for write_restart ...
Last active /omp style is pair_style eam/alloy/omp
next loopVar
# # # thermo_modify flush yes
jump in.lmp ensemble

print """
Label pachadi solti, hos garam.
"""

Label pachadi solti, hos garam.

variable T equal 2500-14*100
# variable T equal 1200
# velocity all create 1200 123123
reset_timestep 0
fix 1 all npt temp $T $T $(dt*100) iso 0 0 $(dt*1000)
fix 1 all npt temp 1100 $T $(dt*100) iso 0 0 $(dt*1000)
fix 1 all npt temp 1100 1100 $(dt*100) iso 0 0 $(dt*1000)
fix 1 all npt temp 1100 1100 0.10000000000000000555 iso 0 0 $(dt*1000)
fix 1 all npt temp 1100 1100 0.10000000000000000555 iso 0 0 1
print """
<--------------------------------------------------------------------->
<------------------ Equilibrating at temperature $T ----------------->
<--------------------------------------------------------------------->
"""

<--------------------------------------------------------------------->
<------------------ Equilibrating at temperature 1100 ----------------->
<--------------------------------------------------------------------->

run 250000
Last active /omp style is pair_style eam/alloy/omp
Step Temp Volume Press KinEng PotEng Density
0    1179.5055    24095.597    4482.0649    312.09186   -8592.5608    8.3176351
Averages over the last 126 of 251 rows, steps 125000 to 250000:
Temp Volume Press KinEng PotEng Density
1099.57 23970.1 295.946 290.941 -8644.8 8.36123
Loop time of 490.76 on 8 procs for 250000 steps with 2048 atoms

# fix 132 all momentum 100 linear 1 1 1 angular

# dump 3 all custom 1000 traj_npt_new.lammpstrj id type x y z
run 50000
Last active /omp style is pair_style eam/alloy/omp
Step Temp Volume Press KinEng PotEng Density
250000    1079.8939    23968.757   -561.04719    285.73509   -8646.2554    8.3616512
Averages over the last 26 of 51 rows, steps 275000 to 300000:
Temp Volume Press KinEng PotEng Density
1096.55 23979.4 -236.269 290.142 -8644.77 8.35798
Loop time of 98.0579 on 8 procs for 50000 steps with 2048 atoms

unfix temp
unfix out_file_1
# unfix 1
# # clear
write_data after_cooling_$T.in
write_data after_cooling_1100.in
System init for write_data ...
Last active /omp style is pair_style eam/alloy/omp
write_restart after_cooling_$T.lmp
write_restart after_cooling_1100.lmp
System init for write_restart ...
Last active /omp style is pair_style eam/alloy/omp
next loopVar
# # # thermo_modify flush yes
jump in.lmp ensemble

print """
Label pachadi solti, hos garam.
"""

Label pachadi solti, hos garam.

variable T equal 2500-15*100
# variable T equal 1200
# velocity all create 1200 123123
reset_timestep 0
fix 1 all npt temp $T $T $(dt*100) iso 0 0 $(dt*1000)
fix 1 all npt temp 1000 $T $(dt*100) iso 0 0 $(dt*1000)
fix 1 all npt temp 1000 1000 $(dt*100) iso 0 0 $(dt*1000)
fix 1 all npt temp 1000 1000 0.10000000000000000555 iso 0 0 $(dt*1000)
fix 1 all npt temp 1000 1000 0.10000000000000000555 iso 0 0 1
print """
<--------------------------------------------------------------------->
<------------------ Equilibrating at temperature $T ----------------->
<--------------------------------------------------------------------->
"""

<--------------------------------------------------------------------->
<------------------ Equilibrating at temperature 1000 ----------------->
<--------------------------------------------------------------------->

run 250000
Last active /omp style is pair_style eam/alloy/omp
Step Temp Volume Press KinEng PotEng Density
0    1112.2683    23938.017    3894.0486     294.3012    -8642.278    8.3723888
Averages over the last 126 of 251 rows, steps 125000 to 250000:
Temp Volume Press KinEng PotEng Density
1002.53 23858.9 -137.861 265.265 -8678.03 8.4002
Loop time of 485.803 on 8 procs for 250000 steps with 2048 atoms

# fix 132 all momentum 100 linear 1 1 1 angular

# dump 3 all custom 1000 traj_npt_new.lammpstrj id type x y z
run 50000
Last active /omp style is pair_style eam/alloy/omp
Step Temp Volume Press KinEng PotEng Density
250000     992.3585    23866.143   -953.95957    262.57361   -8678.8029    8.3976026
Averages over the last 26 of 51 rows, steps 275000 to 300000:
Temp Volume Press KinEng PotEng Density
1005.67 23850.4 269.458 266.097 -8678.87 8.40317
Loop time of 98.3246 on 8 procs for 50000 steps with 2048 atoms

unfix temp
unfix out_file_1
# unfix 1
# # clear
write_data after_cooling_$T.in
write_data after_cooling_1000.in
System init for write_data ...
Last active /omp style is pair_style eam/alloy/omp
write_restart after_cooling_$T.lmp
write_restart after_cooling_1000.lmp
System init for write_restart ...
Last active /omp style is pair_style eam/alloy/omp
next loopVar
# # # thermo_modify flush yes
jump in.lmp ensemble

print """
Label pachadi solti, hos garam.
"""

Label pachadi solti, hos garam.

variable T equal 2500-16*100
# variable T equal 1200
# velocity all create 1200 123123
reset_timestep 0
fix 1 all npt temp $T $T $(dt*100) iso 0 0 $(dt*1000)
fix 1 all npt temp 900 $T $(dt*100) iso 0 0 $(dt*1000)
fix 1 all npt temp 900 900 $(dt*100) iso 0 0 $(dt*1000)
fix 1 all npt temp 900 900 0.10000000000000000555 iso 0 0 $(dt*1000)
fix 1 all npt temp 900 900 0.10000000000000000555 iso 0 0 1
print """
<--------------------------------------------------------------------->
<------------------ Equilibrating at temperature $T ----------------->
<--------------------------------------------------------------------->
"""

<--------------------------------------------------------------------->
<------------------ Equilibrating at temperature 900 ----------------->
<--------------------------------------------------------------------->

run 250000
Last active /omp style is pair_style eam/alloy/omp
Step Temp Volume Press KinEng PotEng Density
0    1017.3378     23861.07     696.6964    269.18302   -8675.3636    8.3993881
Averages over the last 126 of 251 rows, steps 125000 to 250000:
Temp Volume Press KinEng PotEng Density
901.04 23747.2 -132.533 238.411 -8709.44 8.43969
Loop time of 488.337 on 8 procs for 250000 steps with 2048 atoms

# fix 132 all momentum 100 linear 1 1 1 angular

# dump 3 all custom 1000 traj_npt_new.lammpstrj id type x y z
run 50000
Last active /omp style is pair_style eam/alloy/omp
Step Temp Volume Press KinEng PotEng Density
250000    901.43736    23710.897    3661.5215    238.51629   -8703.3169    8.4525855
Averages over the last 26 of 51 rows, steps 275000 to 300000:
Temp Volume Press KinEng PotEng Density
894.751 23742 80.7423 236.747 -8709.78 8.44155
Loop time of 99.4458 on 8 procs for 50000 steps with 2048 atoms

unfix temp
unfix out_file_1
# unfix 1
# # clear
write_data after_cooling_$T.in
write_data after_cooling_900.in
System init for write_data ...
Last active /omp style is pair_style eam/alloy/omp
write_restart after_cooling_$T.lmp
write_restart after_cooling_900.lmp
System init for write_restart ...
Last active /omp style is pair_style eam/alloy/omp
next loopVar
# # # thermo_modify flush yes
jump in.lmp ensemble

print """
Label pachadi solti, hos garam.
"""

Label pachadi solti, hos garam.

variable T equal 2500-17*100
# variable T equal 1200
# velocity all create 1200 123123
reset_timestep 0
fix 1 all npt temp $T $T $(dt*100) iso 0 0 $(dt*1000)
fix 1 all npt temp 800 $T $(dt*100) iso 0 0 $(dt*1000)
fix 1 all npt temp 800 800 $(dt*100) iso 0 0 $(dt*1000)
fix 1 all npt temp 800 800 0.10000000000000000555 iso 0 0 $(dt*1000)
fix 1 all npt temp 800 800 0.10000000000000000555 iso 0 0 1
print """
<--------------------------------------------------------------------->
<------------------ Equilibrating at temperature $T ----------------->
<--------------------------------------------------------------------->
"""

<--------------------------------------------------------------------->
<------------------ Equilibrating at temperature 800 ----------------->
<--------------------------------------------------------------------->

run 250000
Last active /omp style is pair_style eam/alloy/omp
Step Temp Volume Press KinEng PotEng Density
0    906.47786    23802.807   -3040.6188    239.84998   -8705.0044    8.4199474
Averages over the last 126 of 251 rows, steps 125000 to 250000:
Temp Volume Press KinEng PotEng Density
802.69 23636.4 122.605 212.388 -8739.86 8.47926
Loop time of 484.522 on 8 procs for 250000 steps with 2048 atoms

# fix 132 all momentum 100 linear 1 1 1 angular

# dump 3 all custom 1000 traj_npt_new.lammpstrj id type x y z
run 50000
Last active /omp style is pair_style eam/alloy/omp
Step Temp Volume Press KinEng PotEng Density
250000    819.76438    23651.134    350.48904    216.90598     -8735.97    8.4739439
Averages over the last 26 of 51 rows, steps 275000 to 300000:
Temp Volume Press KinEng PotEng Density
801.22 23631.1 311.648 211.999 -8740.61 8.48117
Loop time of 96.7944 on 8 procs for 50000 steps with 2048 atoms

unfix temp
unfix out_file_1
# unfix 1
# # clear
write_data after_cooling_$T.in
write_data after_cooling_800.in
System init for write_data ...
Last active /omp style is pair_style eam/alloy/omp
write_restart after_cooling_$T.lmp
write_restart after_cooling_800.lmp
System init for write_restart ...
Last active /omp style is pair_style eam/alloy/omp
next loopVar
# # # thermo_modify flush yes
jump in.lmp ensemble

print """
Label pachadi solti, hos garam.
"""

Label pachadi solti, hos garam.

variable T equal 2500-18*100
# variable T equal 1200
# velocity all create 1200 123123
reset_timestep 0
fix 1 all npt temp $T $T $(dt*100) iso 0 0 $(dt*1000)
fix 1 all npt temp 700 $T $(dt*100) iso 0 0 $(dt*1000)
fix 1 all npt temp 700 700 $(dt*100) iso 0 0 $(dt*1000)
fix 1 all npt temp 700 700 0.10000000000000000555 iso 0 0 $(dt*1000)
fix 1 all npt temp 700 700 0.10000000000000000555 iso 0 0 1
print """
<--------------------------------------------------------------------->
<------------------ Equilibrating at temperature $T ----------------->
<--------------------------------------------------------------------->
"""

<--------------------------------------------------------------------->
<------------------ Equilibrating at temperature 700 ----------------->
<--------------------------------------------------------------------->

run 250000
Last active /omp style is pair_style eam/alloy/omp
Step Temp Volume Press KinEng PotEng Density
0    804.27962     23622.59    745.89295    212.80878   -8740.2507    8.4841836
Averages over the last 126 of 251 rows, steps 125000 to 250000:
Temp Volume Press KinEng PotEng Density
699.125 23525.9 310.151 184.985 -8770.87 8.51908
Loop time of 480.635 on 8 procs for 250000 steps with 2048 atoms

# fix 132 all momentum 100 linear 1 1 1 angular

# dump 3 all custom 1000 traj_npt_new.lammpstrj id type x y z
run 50000
Last active /omp style is pair_style eam/alloy/omp
Step Temp Volume Press KinEng PotEng Density
250000    699.05257    23507.809    1583.5221    184.96618   -8770.9948     8.525609
Averages over the last 26 of 51 rows, steps 275000 to 300000:
Temp Volume Press KinEng PotEng Density
697.664 23532.8 -76.9562 184.599 -8769.85 8.51657
Loop time of 96.0653 on 8 procs for 50000 steps with 2048 atoms

unfix temp
unfix out_file_1
# unfix 1
# # clear
write_data after_cooling_$T.in
write_data after_cooling_700.in
System init for write_data ...
Last active /omp style is pair_style eam/alloy/omp
write_restart after_cooling_$T.lmp
write_restart after_cooling_700.lmp
System init for write_restart ...
Last active /omp style is pair_style eam/alloy/omp
next loopVar
# # # thermo_modify flush yes
jump in.lmp ensemble

print """
Label pachadi solti, hos garam.
"""

Label pachadi solti, hos garam.

variable T equal 2500-19*100
# variable T equal 1200
# velocity all create 1200 123123
reset_timestep 0
fix 1 all npt temp $T $T $(dt*100) iso 0 0 $(dt*1000)
fix 1 all npt temp 600 $T $(dt*100) iso 0 0 $(dt*1000)
fix 1 all npt temp 600 600 $(dt*100) iso 0 0 $(dt*1000)
fix 1 all npt temp 600 600 0.10000000000000000555 iso 0 0 $(dt*1000)
fix 1 all npt temp 600 600 0.10000000000000000555 iso 0 0 1
print """
<--------------------------------------------------------------------->
<------------------ Equilibrating at temperature $T ----------------->
<--------------------------------------------------------------------->
"""

<--------------------------------------------------------------------->
<------------------ Equilibrating at temperature 600 ----------------->
<--------------------------------------------------------------------->

run 250000
Last active /omp style is pair_style eam/alloy/omp
Step Temp Volume Press KinEng PotEng Density
0    695.69972    23507.336    2296.3557    184.07903   -8768.1488    8.5257806
Averages over the last 126 of 251 rows, steps 125000 to 250000:
Temp Volume Press KinEng PotEng Density
599.515 23429.3 -29.8049 158.629 -8799.92 8.5542
Loop time of 542.42 on 8 procs for 250000 steps with 2048 atoms

# fix 132 all momentum 100 linear 1 1 1 angular

# dump 3 all custom 1000 traj_npt_new.lammpstrj id type x y z
run 50000
Last active /omp style is pair_style eam/alloy/omp
Step Temp Volume Press KinEng PotEng Density
250000    595.30884    23441.986   -1868.7806    157.51605   -8803.7033     8.549548
Averages over the last 26 of 51 rows, steps 275000 to 300000:
Temp Volume Press KinEng PotEng Density
601.145 23429.5 28.1648 159.06 -8799.59 8.55414
Loop time of 103.329 on 8 procs for 50000 steps with 2048 atoms

unfix temp
unfix out_file_1
# unfix 1
# # clear
write_data after_cooling_$T.in
write_data after_cooling_600.in
System init for write_data ...
Last active /omp style is pair_style eam/alloy/omp
write_restart after_cooling_$T.lmp
write_restart after_cooling_600.lmp
System init for write_restart ...
Last active /omp style is pair_style eam/alloy/omp
next loopVar
# # # thermo_modify flush yes
jump in.lmp ensemble

print """
Label pachadi solti, hos garam.
"""

Label pachadi solti, hos garam.

variable T equal 2500-20*100
# variable T equal 1200
# velocity all create 1200 123123
reset_timestep 0
fix 1 all npt temp $T $T $(dt*100) iso 0 0 $(dt*1000)
fix 1 all npt temp 500 $T $(dt*100) iso 0 0 $(dt*1000)
fix 1 all npt temp 500 500 $(dt*100) iso 0 0 $(dt*1000)
fix 1 all npt temp 500 500 0.10000000000000000555 iso 0 0 $(dt*1000)
fix 1 all npt temp 500 500 0.10000000000000000555 iso 0 0 1
print """
<--------------------------------------------------------------------->
<------------------ Equilibrating at temperature $T ----------------->
<--------------------------------------------------------------------->
"""

<--------------------------------------------------------------------->
<------------------ Equilibrating at temperature 500 ----------------->
<--------------------------------------------------------------------->

run 250000
Last active /omp style is pair_style eam/alloy/omp
Step Temp Volume Press KinEng PotEng Density
0    603.00191    23447.069   -1730.7758     159.5516   -8799.0463    8.5476947
Averages over the last 126 of 251 rows, steps 125000 to 250000:
Temp Volume Press KinEng PotEng Density
500.681 23330.4 -59.2695 132.478 -8829.01 8.59044
Loop time of 489.121 on 8 procs for 250000 steps with 2048 atoms

# fix 132 all momentum 100 linear 1 1 1 angular

# dump 3 all custom 1000 traj_npt_new.lammpstrj id type x y z
run 50000
Last active /omp style is pair_style eam/alloy/omp
Step Temp Volume Press KinEng PotEng Density
250000    483.09829    23339.344   -1022.8036    127.82564   -8829.7646    8.5871472
Averages over the last 26 of 51 rows, steps 275000 to 300000:
Temp Volume Press KinEng PotEng Density
498.92 23327.8 168.126 132.012 -8829.05 8.5914
Loop time of 96.1379 on 8 procs for 50000 steps with 2048 atoms

unfix temp
unfix out_file_1
# unfix 1
# # clear
write_data after_cooling_$T.in
write_data after_cooling_500.in
System init for write_data ...
Last active /omp style is pair_style eam/alloy/omp
write_restart after_cooling_$T.lmp
write_restart after_cooling_500.lmp
System init for write_restart ...
Last active /omp style is pair_style eam/alloy/omp
next loopVar
# # # thermo_modify flush yes
jump in.lmp ensemble

print """
Label pachadi solti, hos garam.
"""

Label pachadi solti, hos garam.

variable T equal 2500-21*100
# variable T equal 1200
# velocity all create 1200 123123
reset_timestep 0
fix 1 all npt temp $T $T $(dt*100) iso 0 0 $(dt*1000)
fix 1 all npt temp 400 $T $(dt*100) iso 0 0 $(dt*1000)
fix 1 all npt temp 400 400 $(dt*100) iso 0 0 $(dt*1000)
fix 1 all npt temp 400 400 0.10000000000000000555 iso 0 0 $(dt*1000)
fix 1 all npt temp 400 400 0.10000000000000000555 iso 0 0 1
print """
<--------------------------------------------------------------------->
<------------------ Equilibrating at temperature $T ----------------->
<--------------------------------------------------------------------->
"""

<--------------------------------------------------------------------->
<------------------ Equilibrating at temperature 400 ----------------->
<--------------------------------------------------------------------->

run 250000
Last active /omp style is pair_style eam/alloy/omp
Loop time of 474.654 on 8 procs for 250000 steps with 2048 atoms

# fix 132 all momentum 100 linear 1 1 1 angular

# dump 3 all custom 1000 traj_npt_new.lammpstrj id type x y z
run 50000
Last active /omp style is pair_style eam/alloy/omp
Loop time of 95.1217 on 8 procs for 50000 steps with 2048 atoms

unfix temp
unfix out_file_1
# unfix 1
# # clear
write_data after_cooling_$T.in
write_data after_cooling_400.in
System init for write_data ...
Last active /omp style is pair_style eam/alloy/omp
write_restart after_cooling_$T.lmp
write_restart after_cooling_400.lmp
System init for write_restart ...
Last active /omp style is pair_style eam/alloy/omp
next loopVar
# # # thermo_modify flush yes
jump in.lmp ensemble

print """
Label pachadi solti, hos garam.
"""

Label pachadi solti, hos garam.

variable T equal 2500-22*100
# variable T equal 1200
# velocity all create 1200 123123
reset_timestep 0
fix 1 all npt temp $T $T $(dt*100) iso 0 0 $(dt*1000)
fix 1 all npt temp 300 $T $(dt*100) iso 0 0 $(dt*1000)
fix 1 all npt temp 300 300 $(dt*100) iso 0 0 $(dt*1000)
fix 1 all npt temp 300 300 0.10000000000000000555 iso 0 0 $(dt*1000)
fix 1 all npt temp 300 300 0.10000000000000000555 iso 0 0 1
print """
<--------------------------------------------------------------------->
<------------------ Equilibrating at temperature $T ----------------->
<--------------------------------------------------------------------->
"""

<--------------------------------------------------------------------->
<------------------ Equilibrating at temperature 300 ----------------->
<--------------------------------------------------------------------->

run 250000
Last active /omp style is pair_style eam/alloy/omp
Loop time of 481.172 on 8 procs for 250000 steps with 2048 atoms

# fix 132 all momentum 100 linear 1 1 1 angular

# dump 3 all custom 1000 traj_npt_new.lammpstrj id type x y z
run 50000
Last active /omp style is pair_style eam/alloy/omp
Loop time of 96.1675 on 8 procs for 50000 steps with 2048 atoms

unfix temp
unfix out_file_1
# unfix 1
# # clear
write_data after_cooling_$T.in
write_data after_cooling_300.in
System init for write_data ...
Last active /omp style is pair_style eam/alloy/omp
write_restart after_cooling_$T.lmp
write_restart after_cooling_300.lmp
System init for write_restart ...
Last active /omp style is pair_style eam/alloy/omp
next loopVar
# # # thermo_modify flush yes
jump in.lmp ensemble

# write_data after_cooling_$T_.in
# write_restart after_cooling_$T.lmp
