LAMMPS (29 Oct 2020)
package omp 0
using multi-threaded neighbor list subroutines
package omp 2
set 2 OpenMP thread(s) per MPI task
using multi-threaded neighbor list subroutines
# units metal  #<----->
# dimension 3
# boundary p p p

# lattice fcc 3.5440
# region box block 0 8 0 8 0 8 units lattice
# create_box 1 box
# create_atoms 1 box

read_restart after_heating_press_500000_4200.lmp  #<----->
Reading restart file ...
  restart file = 29 Oct 2020, LAMMPS = 29 Oct 2020
  restoring atom style atomic from restart
  orthogonal box = (0.28958146 0.28958146 0.28958146) to (28.062419 28.062419 28.062419)
  pair style eam/alloy/omp stores no restart info
  2048 atoms
  read_restart CPU = 0.002 seconds
# read_restart after_cooling_press_300000_1850.lmp

variable P equal 500000
variable dt equal 0.001
variable loopVar loop 6
variable sys_press equal "press/10000"

# variable sim string "heating"  #<----->
variable sim string "cooling"

pair_style eam/alloy
pair_coeff * * Co_Zhou04.eam.alloy Co
Reading eam/alloy potential file Co_Zhou04.eam.alloy with DATE: 2018-03-30

neighbor 2 bin
neigh_modify every 10 check yes

thermo 1000
thermo_style custom step temp vol press ke pe density

timestep $(dt)
timestep 0.0010000000000000000208

# velocity all create 3400 123123 #<----->

print """
yo aagadi
"""

yo aagadi

label ensemble

print """
Label pachadi solti, hos garam.
"""

Label pachadi solti, hos garam.

variable T equal 2900-1*100
# variable T equal 3750

reset_timestep 0
fix 1 all npt temp $T $T $(dt*100) iso $P $P $(dt*1000)
fix 1 all npt temp 2800 $T $(dt*100) iso $P $P $(dt*1000)
fix 1 all npt temp 2800 2800 $(dt*100) iso $P $P $(dt*1000)
fix 1 all npt temp 2800 2800 0.10000000000000000555 iso $P $P $(dt*1000)
fix 1 all npt temp 2800 2800 0.10000000000000000555 iso 500000 $P $(dt*1000)
fix 1 all npt temp 2800 2800 0.10000000000000000555 iso 500000 500000 $(dt*1000)
fix 1 all npt temp 2800 2800 0.10000000000000000555 iso 500000 500000 1
  fix style: npt/omp, fix ID: 1
print """
<--------------------------------------------------------------------->
<------------------ Equilibrating at temperature $T ----------------->
<--------------------------------------------------------------------->
"""

<--------------------------------------------------------------------->
<------------------ Equilibrating at temperature 2800 ----------------->
<--------------------------------------------------------------------->

run 250000
All restart file global fix info was re-assigned
Last active /omp style is pair_style eam/alloy/omp
  update every 10 steps, delay 10 steps, check yes
Step Temp Volume Press KinEng PotEng Density
0    4062.8018    21422.036    491957.03    1074.9991   -7438.4022    9.3557115
Averages over the last 126 of 251 rows, steps 125000 to 250000:
Temp Volume Press KinEng PotEng Density
2800.62 20655.2 499897 741.032 -7725.01 9.70311
Loop time of 503.757 on 8 procs for 250000 steps with 2048 atoms

# fix 132 all momentum 100 linear 1 1 1 angular

# dump 3 all custom 1000 traj_npt_new.lammpstrj id type x y z
run 50000
Last active /omp style is pair_style eam/alloy/omp
Step Temp Volume Press KinEng PotEng Density
250000    2775.7025    20713.575     488546.5    734.43843   -7747.1985    9.6757025
Averages over the last 26 of 51 rows, steps 275000 to 300000:
Temp Volume Press KinEng PotEng Density
2805.97 20660.5 499558 742.448 -7723.62 9.70065
Loop time of 106.001 on 8 procs for 50000 steps with 2048 atoms

unfix temp
unfix out_file_1

write_data after_cooling_press_$P_$T.in
write_data after_cooling_press_500000_$T.in
write_data after_cooling_press_500000_2800.in
System init for write_data ...
Last active /omp style is pair_style eam/alloy/omp
write_restart after_cooling_press_$P_$T.lmp
write_restart after_cooling_press_500000_$T.lmp
write_restart after_cooling_press_500000_2800.lmp
System init for write_restart ...
Last active /omp style is pair_style eam/alloy/omp

next loopVar  #<----->
jump in.lmp ensemble

print """
Label pachadi solti, hos garam.
"""

Label pachadi solti, hos garam.

variable T equal 2900-2*100
# variable T equal 3750

reset_timestep 0
fix 1 all npt temp $T $T $(dt*100) iso $P $P $(dt*1000)
fix 1 all npt temp 2700 $T $(dt*100) iso $P $P $(dt*1000)
fix 1 all npt temp 2700 2700 $(dt*100) iso $P $P $(dt*1000)
fix 1 all npt temp 2700 2700 0.10000000000000000555 iso $P $P $(dt*1000)
fix 1 all npt temp 2700 2700 0.10000000000000000555 iso 500000 $P $(dt*1000)
fix 1 all npt temp 2700 2700 0.10000000000000000555 iso 500000 500000 $(dt*1000)
fix 1 all npt temp 2700 2700 0.10000000000000000555 iso 500000 500000 1
print """
<--------------------------------------------------------------------->
<------------------ Equilibrating at temperature $T ----------------->
<--------------------------------------------------------------------->
"""

<--------------------------------------------------------------------->
<------------------ Equilibrating at temperature 2700 ----------------->
<--------------------------------------------------------------------->

run 250000
Last active /omp style is pair_style eam/alloy/omp
Step Temp Volume Press KinEng PotEng Density
0     2787.077     20660.67    498906.65    737.44807   -7720.9676    9.7004787
Averages over the last 126 of 251 rows, steps 125000 to 250000:
Temp Volume Press KinEng PotEng Density
2704.09 20602.9 500030 715.489 -7746.94 9.7277
Loop time of 515.762 on 8 procs for 250000 steps with 2048 atoms

# fix 132 all momentum 100 linear 1 1 1 angular

# dump 3 all custom 1000 traj_npt_new.lammpstrj id type x y z
run 50000
Last active /omp style is pair_style eam/alloy/omp
Step Temp Volume Press KinEng PotEng Density
250000    2649.7338    20591.828    501343.94     701.1077   -7744.0546    9.7329089
Averages over the last 26 of 51 rows, steps 275000 to 300000:
Temp Volume Press KinEng PotEng Density
2706.69 20594.9 499816 716.178 -7752.99 9.73154
Loop time of 103.043 on 8 procs for 50000 steps with 2048 atoms

unfix temp
unfix out_file_1

write_data after_cooling_press_$P_$T.in
write_data after_cooling_press_500000_$T.in
write_data after_cooling_press_500000_2700.in
System init for write_data ...
Last active /omp style is pair_style eam/alloy/omp
write_restart after_cooling_press_$P_$T.lmp
write_restart after_cooling_press_500000_$T.lmp
write_restart after_cooling_press_500000_2700.lmp
System init for write_restart ...
Last active /omp style is pair_style eam/alloy/omp

next loopVar  #<----->
jump in.lmp ensemble

print """
Label pachadi solti, hos garam.
"""

Label pachadi solti, hos garam.

variable T equal 2900-3*100
# variable T equal 3750

reset_timestep 0
fix 1 all npt temp $T $T $(dt*100) iso $P $P $(dt*1000)
fix 1 all npt temp 2600 $T $(dt*100) iso $P $P $(dt*1000)
fix 1 all npt temp 2600 2600 $(dt*100) iso $P $P $(dt*1000)
fix 1 all npt temp 2600 2600 0.10000000000000000555 iso $P $P $(dt*1000)
fix 1 all npt temp 2600 2600 0.10000000000000000555 iso 500000 $P $(dt*1000)
fix 1 all npt temp 2600 2600 0.10000000000000000555 iso 500000 500000 $(dt*1000)
fix 1 all npt temp 2600 2600 0.10000000000000000555 iso 500000 500000 1
print """
<--------------------------------------------------------------------->
<------------------ Equilibrating at temperature $T ----------------->
<--------------------------------------------------------------------->
"""

<--------------------------------------------------------------------->
<------------------ Equilibrating at temperature 2600 ----------------->
<--------------------------------------------------------------------->

run 250000
Last active /omp style is pair_style eam/alloy/omp
Step Temp Volume Press KinEng PotEng Density
0    2657.9241    20686.353    486160.99    703.27481   -7765.7788    9.6884351
Averages over the last 126 of 251 rows, steps 125000 to 250000:
Temp Volume Press KinEng PotEng Density
2598.34 20545.6 500258 687.508 -7770.61 9.75486
Loop time of 514.256 on 8 procs for 250000 steps with 2048 atoms

# fix 132 all momentum 100 linear 1 1 1 angular

# dump 3 all custom 1000 traj_npt_new.lammpstrj id type x y z
run 50000
Last active /omp style is pair_style eam/alloy/omp
Step Temp Volume Press KinEng PotEng Density
250000    2595.6038    20653.265    484488.27    686.78513   -7789.4493    9.7039563
Averages over the last 26 of 51 rows, steps 275000 to 300000:
Temp Volume Press KinEng PotEng Density
2599.34 20555.9 498717 687.773 -7773.21 9.74998
Loop time of 103.041 on 8 procs for 50000 steps with 2048 atoms

unfix temp
unfix out_file_1

write_data after_cooling_press_$P_$T.in
write_data after_cooling_press_500000_$T.in
write_data after_cooling_press_500000_2600.in
System init for write_data ...
Last active /omp style is pair_style eam/alloy/omp
write_restart after_cooling_press_$P_$T.lmp
write_restart after_cooling_press_500000_$T.lmp
write_restart after_cooling_press_500000_2600.lmp
System init for write_restart ...
Last active /omp style is pair_style eam/alloy/omp

next loopVar  #<----->
jump in.lmp ensemble

print """
Label pachadi solti, hos garam.
"""

Label pachadi solti, hos garam.

variable T equal 2900-4*100
# variable T equal 3750

reset_timestep 0
fix 1 all npt temp $T $T $(dt*100) iso $P $P $(dt*1000)
fix 1 all npt temp 2500 $T $(dt*100) iso $P $P $(dt*1000)
fix 1 all npt temp 2500 2500 $(dt*100) iso $P $P $(dt*1000)
fix 1 all npt temp 2500 2500 0.10000000000000000555 iso $P $P $(dt*1000)
fix 1 all npt temp 2500 2500 0.10000000000000000555 iso 500000 $P $(dt*1000)
fix 1 all npt temp 2500 2500 0.10000000000000000555 iso 500000 500000 $(dt*1000)
fix 1 all npt temp 2500 2500 0.10000000000000000555 iso 500000 500000 1
print """
<--------------------------------------------------------------------->
<------------------ Equilibrating at temperature $T ----------------->
<--------------------------------------------------------------------->
"""

<--------------------------------------------------------------------->
<------------------ Equilibrating at temperature 2500 ----------------->
<--------------------------------------------------------------------->

run 250000
Last active /omp style is pair_style eam/alloy/omp
Step Temp Volume Press KinEng PotEng Density
0    2640.1092    20566.144    494003.85    698.56107   -7793.5173    9.7450636
Averages over the last 126 of 251 rows, steps 125000 to 250000:
Temp Volume Press KinEng PotEng Density
2494.56 20496.2 499511 660.05 -7795.73 9.77835
Loop time of 515.665 on 8 procs for 250000 steps with 2048 atoms

# fix 132 all momentum 100 linear 1 1 1 angular

# dump 3 all custom 1000 traj_npt_new.lammpstrj id type x y z
run 50000
Last active /omp style is pair_style eam/alloy/omp
Step Temp Volume Press KinEng PotEng Density
250000    2491.5318    20586.433    485392.23    659.24815   -7813.7553    9.7354597
Averages over the last 26 of 51 rows, steps 275000 to 300000:
Temp Volume Press KinEng PotEng Density
2499.36 20486.9 500354 661.32 -7796.71 9.78282
Loop time of 101.811 on 8 procs for 50000 steps with 2048 atoms

unfix temp
unfix out_file_1

write_data after_cooling_press_$P_$T.in
write_data after_cooling_press_500000_$T.in
write_data after_cooling_press_500000_2500.in
System init for write_data ...
Last active /omp style is pair_style eam/alloy/omp
write_restart after_cooling_press_$P_$T.lmp
write_restart after_cooling_press_500000_$T.lmp
write_restart after_cooling_press_500000_2500.lmp
System init for write_restart ...
Last active /omp style is pair_style eam/alloy/omp

next loopVar  #<----->
jump in.lmp ensemble

print """
Label pachadi solti, hos garam.
"""

Label pachadi solti, hos garam.

variable T equal 2900-5*100
# variable T equal 3750

reset_timestep 0
fix 1 all npt temp $T $T $(dt*100) iso $P $P $(dt*1000)
fix 1 all npt temp 2400 $T $(dt*100) iso $P $P $(dt*1000)
fix 1 all npt temp 2400 2400 $(dt*100) iso $P $P $(dt*1000)
fix 1 all npt temp 2400 2400 0.10000000000000000555 iso $P $P $(dt*1000)
fix 1 all npt temp 2400 2400 0.10000000000000000555 iso 500000 $P $(dt*1000)
fix 1 all npt temp 2400 2400 0.10000000000000000555 iso 500000 500000 $(dt*1000)
fix 1 all npt temp 2400 2400 0.10000000000000000555 iso 500000 500000 1
print """
<--------------------------------------------------------------------->
<------------------ Equilibrating at temperature $T ----------------->
<--------------------------------------------------------------------->
"""

<--------------------------------------------------------------------->
<------------------ Equilibrating at temperature 2400 ----------------->
<--------------------------------------------------------------------->

run 250000
Last active /omp style is pair_style eam/alloy/omp
Step Temp Volume Press KinEng PotEng Density
0    2512.2261    20549.023    489230.34    664.72377   -7819.6918    9.7531832
Averages over the last 126 of 251 rows, steps 125000 to 250000:
Temp Volume Press KinEng PotEng Density
2397.25 20437 499774 634.301 -7821.64 9.80671
Loop time of 517.576 on 8 procs for 250000 steps with 2048 atoms

# fix 132 all momentum 100 linear 1 1 1 angular

# dump 3 all custom 1000 traj_npt_new.lammpstrj id type x y z
run 50000
Last active /omp style is pair_style eam/alloy/omp
Step Temp Volume Press KinEng PotEng Density
250000    2379.6294    20370.161     510226.3    629.63927   -7811.3589    9.8388221
Averages over the last 26 of 51 rows, steps 275000 to 300000:
Temp Volume Press KinEng PotEng Density
2404.69 20443 498528 636.27 -7824.94 9.80381
Loop time of 101.885 on 8 procs for 50000 steps with 2048 atoms

unfix temp
unfix out_file_1

write_data after_cooling_press_$P_$T.in
write_data after_cooling_press_500000_$T.in
write_data after_cooling_press_500000_2400.in
System init for write_data ...
Last active /omp style is pair_style eam/alloy/omp
write_restart after_cooling_press_$P_$T.lmp
write_restart after_cooling_press_500000_$T.lmp
write_restart after_cooling_press_500000_2400.lmp
System init for write_restart ...
Last active /omp style is pair_style eam/alloy/omp

next loopVar  #<----->
jump in.lmp ensemble

print """
Label pachadi solti, hos garam.
"""

Label pachadi solti, hos garam.

variable T equal 2900-6*100
# variable T equal 3750

reset_timestep 0
fix 1 all npt temp $T $T $(dt*100) iso $P $P $(dt*1000)
fix 1 all npt temp 2300 $T $(dt*100) iso $P $P $(dt*1000)
fix 1 all npt temp 2300 2300 $(dt*100) iso $P $P $(dt*1000)
fix 1 all npt temp 2300 2300 0.10000000000000000555 iso $P $P $(dt*1000)
fix 1 all npt temp 2300 2300 0.10000000000000000555 iso 500000 $P $(dt*1000)
fix 1 all npt temp 2300 2300 0.10000000000000000555 iso 500000 500000 $(dt*1000)
fix 1 all npt temp 2300 2300 0.10000000000000000555 iso 500000 500000 1
print """
<--------------------------------------------------------------------->
<------------------ Equilibrating at temperature $T ----------------->
<--------------------------------------------------------------------->
"""

<--------------------------------------------------------------------->
<------------------ Equilibrating at temperature 2300 ----------------->
<--------------------------------------------------------------------->

run 250000
Last active /omp style is pair_style eam/alloy/omp
Step Temp Volume Press KinEng PotEng Density
0    2379.0971      20414.3    499200.82    629.49842   -7831.1231    9.8175486
Averages over the last 126 of 251 rows, steps 125000 to 250000:
Temp Volume Press KinEng PotEng Density
2298.92 20376.1 500635 608.285 -7846.17 9.83603
Loop time of 518.594 on 8 procs for 250000 steps with 2048 atoms

# fix 132 all momentum 100 linear 1 1 1 angular

# dump 3 all custom 1000 traj_npt_new.lammpstrj id type x y z
run 50000
Last active /omp style is pair_style eam/alloy/omp
Step Temp Volume Press KinEng PotEng Density
250000    2231.8338    20282.758    516309.71    590.53321   -7823.4809    9.8812196
Averages over the last 26 of 51 rows, steps 275000 to 300000:
Temp Volume Press KinEng PotEng Density
2298.58 20383.9 498629 608.193 -7851.1 9.83224
Loop time of 129.516 on 8 procs for 50000 steps with 2048 atoms

unfix temp
unfix out_file_1

write_data after_cooling_press_$P_$T.in
write_data after_cooling_press_500000_$T.in
write_data after_cooling_press_500000_2300.in
System init for write_data ...
Last active /omp style is pair_style eam/alloy/omp
write_restart after_cooling_press_$P_$T.lmp
write_restart after_cooling_press_500000_$T.lmp
write_restart after_cooling_press_500000_2300.lmp
System init for write_restart ...
Last active /omp style is pair_style eam/alloy/omp

next loopVar  #<----->
jump in.lmp ensemble
