LAMMPS (29 Oct 2020)
package omp 0
using multi-threaded neighbor list subroutines
package omp 2
set 2 OpenMP thread(s) per MPI task
using multi-threaded neighbor list subroutines
# units metal  #<----->
# dimension 3
# boundary p p p

# lattice fcc 3.5440
# region box block 0 8 0 8 0 8 units lattice
# create_box 1 box
# create_atoms 1 box

# read_restart after_heating_press_500000_4200.lmp  #<----->
read_restart after_cooling_press_500000_2300.lmp
Reading restart file ...
  restart file = 29 Oct 2020, LAMMPS = 29 Oct 2020
  restoring atom style atomic from restart
  orthogonal box = (0.5252721 0.5252721 0.5252721) to (27.826728 27.826728 27.826728)
  pair style eam/alloy/omp stores no restart info
  2048 atoms
  read_restart CPU = 0.003 seconds

variable P equal 500000
variable dt equal 0.001
variable loopVar loop 3
variable sys_press equal "press/10000"

# variable sim string "heating"  #<----->
variable sim string "cooling"

pair_style eam/alloy
pair_coeff * * Co_Zhou04.eam.alloy Co
Reading eam/alloy potential file Co_Zhou04.eam.alloy with DATE: 2018-03-30

neighbor 2 bin
neigh_modify every 10 check yes

thermo 1000
thermo_style custom step temp vol press ke pe density

timestep $(dt)
timestep 0.0010000000000000000208

# velocity all create 3400 123123 #<----->

print """
yo aagadi
"""

yo aagadi

label ensemble

print """
Label pachadi solti, hos garam.
"""

Label pachadi solti, hos garam.

variable T equal 2300-1*100
# variable T equal 3750

reset_timestep 0
fix 1 all npt temp $T $T $(dt*100) iso $P $P $(dt*1000)
fix 1 all npt temp 2200 $T $(dt*100) iso $P $P $(dt*1000)
fix 1 all npt temp 2200 2200 $(dt*100) iso $P $P $(dt*1000)
fix 1 all npt temp 2200 2200 0.10000000000000000555 iso $P $P $(dt*1000)
fix 1 all npt temp 2200 2200 0.10000000000000000555 iso 500000 $P $(dt*1000)
fix 1 all npt temp 2200 2200 0.10000000000000000555 iso 500000 500000 $(dt*1000)
fix 1 all npt temp 2200 2200 0.10000000000000000555 iso 500000 500000 1
  fix style: npt/omp, fix ID: 1
print """
<--------------------------------------------------------------------->
<------------------ Equilibrating at temperature $T ----------------->
<--------------------------------------------------------------------->
"""

<--------------------------------------------------------------------->
<------------------ Equilibrating at temperature 2200 ----------------->
<--------------------------------------------------------------------->

run 250000
All restart file global fix info was re-assigned
Last active /omp style is pair_style eam/alloy/omp
  update every 10 steps, delay 10 steps, check yes
Step Temp Volume Press KinEng PotEng Density
0    2301.3946    20349.672    509390.88     608.9387    -7817.261     9.848728
Averages over the last 126 of 251 rows, steps 125000 to 250000:
Temp Volume Press KinEng PotEng Density
2195.81 20180.4 499140 581.002 -7961.38 9.93192
Loop time of 500.482 on 8 procs for 250000 steps with 2048 atoms

# fix 132 all momentum 100 linear 1 1 1 angular

# dump 3 all custom 1000 traj_npt_new.lammpstrj id type x y z
run 50000
Last active /omp style is pair_style eam/alloy/omp
Step Temp Volume Press KinEng PotEng Density
250000    2188.7194    19889.649    508474.01    579.12535   -8087.0244    10.076517
Averages over the last 26 of 51 rows, steps 275000 to 300000:
Temp Volume Press KinEng PotEng Density
2183.65 19973.7 493599 577.784 -8107.64 10.0341
Loop time of 102.441 on 8 procs for 50000 steps with 2048 atoms

unfix temp
unfix out_file_1

write_data after_cooling_press_$P_$T.in
write_data after_cooling_press_500000_$T.in
write_data after_cooling_press_500000_2200.in
System init for write_data ...
Last active /omp style is pair_style eam/alloy/omp
write_restart after_cooling_press_$P_$T.lmp
write_restart after_cooling_press_500000_$T.lmp
write_restart after_cooling_press_500000_2200.lmp
System init for write_restart ...
Last active /omp style is pair_style eam/alloy/omp

next loopVar  #<----->
jump in.lmp ensemble

print """
Label pachadi solti, hos garam.
"""

Label pachadi solti, hos garam.

variable T equal 2300-2*100
# variable T equal 3750

reset_timestep 0
fix 1 all npt temp $T $T $(dt*100) iso $P $P $(dt*1000)
fix 1 all npt temp 2100 $T $(dt*100) iso $P $P $(dt*1000)
fix 1 all npt temp 2100 2100 $(dt*100) iso $P $P $(dt*1000)
fix 1 all npt temp 2100 2100 0.10000000000000000555 iso $P $P $(dt*1000)
fix 1 all npt temp 2100 2100 0.10000000000000000555 iso 500000 $P $(dt*1000)
fix 1 all npt temp 2100 2100 0.10000000000000000555 iso 500000 500000 $(dt*1000)
fix 1 all npt temp 2100 2100 0.10000000000000000555 iso 500000 500000 1
print """
<--------------------------------------------------------------------->
<------------------ Equilibrating at temperature $T ----------------->
<--------------------------------------------------------------------->
"""

<--------------------------------------------------------------------->
<------------------ Equilibrating at temperature 2100 ----------------->
<--------------------------------------------------------------------->

run 250000
Last active /omp style is pair_style eam/alloy/omp
Step Temp Volume Press KinEng PotEng Density
0    2194.1827    19993.573    493757.02    580.57091   -8096.4409    10.024141
Averages over the last 126 of 251 rows, steps 125000 to 250000:
Temp Volume Press KinEng PotEng Density
2094.87 19896.9 499737 554.293 -8118.34 10.0729
Loop time of 505.388 on 8 procs for 250000 steps with 2048 atoms

# fix 132 all momentum 100 linear 1 1 1 angular

# dump 3 all custom 1000 traj_npt_new.lammpstrj id type x y z
run 50000
Last active /omp style is pair_style eam/alloy/omp
Step Temp Volume Press KinEng PotEng Density
250000    2049.3453    19838.318     511852.6    542.24758   -8091.7982     10.10259
Averages over the last 26 of 51 rows, steps 275000 to 300000:
Temp Volume Press KinEng PotEng Density
2095.68 19892.3 500040 554.508 -8120.46 10.0752
Loop time of 99.4889 on 8 procs for 50000 steps with 2048 atoms

unfix temp
unfix out_file_1

write_data after_cooling_press_$P_$T.in
write_data after_cooling_press_500000_$T.in
write_data after_cooling_press_500000_2100.in
System init for write_data ...
Last active /omp style is pair_style eam/alloy/omp
write_restart after_cooling_press_$P_$T.lmp
write_restart after_cooling_press_500000_$T.lmp
write_restart after_cooling_press_500000_2100.lmp
System init for write_restart ...
Last active /omp style is pair_style eam/alloy/omp

next loopVar  #<----->
jump in.lmp ensemble

print """
Label pachadi solti, hos garam.
"""

Label pachadi solti, hos garam.

variable T equal 2300-3*100
# variable T equal 3750

reset_timestep 0
fix 1 all npt temp $T $T $(dt*100) iso $P $P $(dt*1000)
fix 1 all npt temp 2000 $T $(dt*100) iso $P $P $(dt*1000)
fix 1 all npt temp 2000 2000 $(dt*100) iso $P $P $(dt*1000)
fix 1 all npt temp 2000 2000 0.10000000000000000555 iso $P $P $(dt*1000)
fix 1 all npt temp 2000 2000 0.10000000000000000555 iso 500000 $P $(dt*1000)
fix 1 all npt temp 2000 2000 0.10000000000000000555 iso 500000 500000 $(dt*1000)
fix 1 all npt temp 2000 2000 0.10000000000000000555 iso 500000 500000 1
print """
<--------------------------------------------------------------------->
<------------------ Equilibrating at temperature $T ----------------->
<--------------------------------------------------------------------->
"""

<--------------------------------------------------------------------->
<------------------ Equilibrating at temperature 2000 ----------------->
<--------------------------------------------------------------------->

run 250000
Last active /omp style is pair_style eam/alloy/omp
Step Temp Volume Press KinEng PotEng Density
0    2083.6839    19994.506    483360.24    551.33341   -8139.6953    10.023673
Averages over the last 126 of 251 rows, steps 125000 to 250000:
Temp Volume Press KinEng PotEng Density
2005.04 19857.1 498987 530.525 -8140.61 10.0931
Loop time of 505.807 on 8 procs for 250000 steps with 2048 atoms

# fix 132 all momentum 100 linear 1 1 1 angular

# dump 3 all custom 1000 traj_npt_new.lammpstrj id type x y z
run 50000
Last active /omp style is pair_style eam/alloy/omp
Step Temp Volume Press KinEng PotEng Density
250000    2108.5362    19853.286    501805.87    557.90922    -8137.409    10.094973
Averages over the last 26 of 51 rows, steps 275000 to 300000:
Temp Volume Press KinEng PotEng Density
2008.66 19841.4 501409 531.483 -8138.86 10.101
Loop time of 100.205 on 8 procs for 50000 steps with 2048 atoms

unfix temp
unfix out_file_1

write_data after_cooling_press_$P_$T.in
write_data after_cooling_press_500000_$T.in
write_data after_cooling_press_500000_2000.in
System init for write_data ...
Last active /omp style is pair_style eam/alloy/omp
write_restart after_cooling_press_$P_$T.lmp
write_restart after_cooling_press_500000_$T.lmp
write_restart after_cooling_press_500000_2000.lmp
System init for write_restart ...
Last active /omp style is pair_style eam/alloy/omp

next loopVar  #<----->
jump in.lmp ensemble
