LAMMPS (29 Oct 2020)
package omp 0
using multi-threaded neighbor list subroutines
package omp 2
set 2 OpenMP thread(s) per MPI task
using multi-threaded neighbor list subroutines
units metal
dimension 3
boundary p p p

lattice fcc 3.5440
Lattice spacing in x,y,z = 3.5440000 3.5440000 3.5440000
region box block 0 8 0 8 0 8 units lattice
create_box 1 box
Created orthogonal box = (0.0000000 0.0000000 0.0000000) to (28.352000 28.352000 28.352000)
create_atoms 1 box
Created 2048 atoms

# read_restart after_heating_press_200000_3100.lmp
# read_restart after_cooling_press_200000_1800.lmp

variable P equal 300000
variable dt equal 0.001
variable loopVar loop 6
variable sys_press equal "press/10000"

variable sim string "heating"
# variable sim string "cooling"

pair_style eam/alloy
pair_coeff * * Co_Zhou04.eam.alloy Co
Reading eam/alloy potential file Co_Zhou04.eam.alloy with DATE: 2018-03-30

neighbor 2 bin
neigh_modify every 10 check yes

thermo 1000
thermo_style custom step temp vol press ke pe density

timestep $(dt)
timestep 0.0010000000000000000208

velocity all create 3100 123123

print """
yo aagadi
"""

yo aagadi

label ensemble

print """
Label pachadi solti, hos garam.
"""

Label pachadi solti, hos garam.

variable T equal 3000+1*100
# variable T equal 1750

reset_timestep 0
fix 1 all npt temp $T $T $(dt*100) iso $P $P $(dt*1000)
fix 1 all npt temp 3100 $T $(dt*100) iso $P $P $(dt*1000)
fix 1 all npt temp 3100 3100 $(dt*100) iso $P $P $(dt*1000)
fix 1 all npt temp 3100 3100 0.10000000000000000555 iso $P $P $(dt*1000)
fix 1 all npt temp 3100 3100 0.10000000000000000555 iso 300000 $P $(dt*1000)
fix 1 all npt temp 3100 3100 0.10000000000000000555 iso 300000 300000 $(dt*1000)
fix 1 all npt temp 3100 3100 0.10000000000000000555 iso 300000 300000 1
print """
<--------------------------------------------------------------------->
<------------------ Equilibrating at temperature $T ----------------->
<--------------------------------------------------------------------->
"""

<--------------------------------------------------------------------->
<------------------ Equilibrating at temperature 3100 ----------------->
<--------------------------------------------------------------------->

run 250000
Last active /omp style is pair_style eam/alloy/omp
  update every 10 steps, delay 10 steps, check yes
Step Temp Volume Press KinEng PotEng Density
0         3100    22790.356    46122.756     820.2461    -9015.757        8.794
Averages over the last 126 of 251 rows, steps 125000 to 250000:
Temp Volume Press KinEng PotEng Density
3097.62 21905.8 300250 819.617 -8128.21 9.14919
Loop time of 518.464 on 8 procs for 250000 steps with 2048 atoms

# fix 132 all momentum 100 linear 1 1 1 angular

# dump 3 all custom 1000 traj_npt_new.lammpstrj id type x y z
run 50000
Last active /omp style is pair_style eam/alloy/omp
Step Temp Volume Press KinEng PotEng Density
250000    3082.4538    21932.335    296576.01    815.60345   -8136.7606    9.1380322
Averages over the last 26 of 51 rows, steps 275000 to 300000:
Temp Volume Press KinEng PotEng Density
3103.81 21898.7 299811 821.255 -8133.62 9.15215
Loop time of 107.725 on 8 procs for 50000 steps with 2048 atoms

unfix temp
unfix out_file_1

write_data after_heating_press_$P_$T.in
write_data after_heating_press_300000_$T.in
write_data after_heating_press_300000_3100.in
System init for write_data ...
Last active /omp style is pair_style eam/alloy/omp
write_restart after_heating_press_$P_$T.lmp
write_restart after_heating_press_300000_$T.lmp
write_restart after_heating_press_300000_3100.lmp
System init for write_restart ...
Last active /omp style is pair_style eam/alloy/omp

next loopVar
jump in.lmp ensemble

print """
Label pachadi solti, hos garam.
"""

Label pachadi solti, hos garam.

variable T equal 3000+2*100
# variable T equal 1750

reset_timestep 0
fix 1 all npt temp $T $T $(dt*100) iso $P $P $(dt*1000)
fix 1 all npt temp 3200 $T $(dt*100) iso $P $P $(dt*1000)
fix 1 all npt temp 3200 3200 $(dt*100) iso $P $P $(dt*1000)
fix 1 all npt temp 3200 3200 0.10000000000000000555 iso $P $P $(dt*1000)
fix 1 all npt temp 3200 3200 0.10000000000000000555 iso 300000 $P $(dt*1000)
fix 1 all npt temp 3200 3200 0.10000000000000000555 iso 300000 300000 $(dt*1000)
fix 1 all npt temp 3200 3200 0.10000000000000000555 iso 300000 300000 1
print """
<--------------------------------------------------------------------->
<------------------ Equilibrating at temperature $T ----------------->
<--------------------------------------------------------------------->
"""

<--------------------------------------------------------------------->
<------------------ Equilibrating at temperature 3200 ----------------->
<--------------------------------------------------------------------->

run 250000
Last active /omp style is pair_style eam/alloy/omp
Step Temp Volume Press KinEng PotEng Density
0    3119.1608    21836.894    304446.53    825.31596    -8137.602    9.1779712
Averages over the last 126 of 251 rows, steps 125000 to 250000:
Temp Volume Press KinEng PotEng Density
3200.58 22002.3 299512 846.858 -8094.42 9.10907
Loop time of 536.453 on 8 procs for 250000 steps with 2048 atoms

# fix 132 all momentum 100 linear 1 1 1 angular

# dump 3 all custom 1000 traj_npt_new.lammpstrj id type x y z
run 50000
Last active /omp style is pair_style eam/alloy/omp
Step Temp Volume Press KinEng PotEng Density
250000    3194.5476    22016.716    299732.97    845.26298   -8084.2898    9.1030101
Averages over the last 26 of 51 rows, steps 275000 to 300000:
Temp Volume Press KinEng PotEng Density
3197.93 21992.2 300910 846.159 -8091.85 9.11321
Loop time of 107.384 on 8 procs for 50000 steps with 2048 atoms

unfix temp
unfix out_file_1

write_data after_heating_press_$P_$T.in
write_data after_heating_press_300000_$T.in
write_data after_heating_press_300000_3200.in
System init for write_data ...
Last active /omp style is pair_style eam/alloy/omp
write_restart after_heating_press_$P_$T.lmp
write_restart after_heating_press_300000_$T.lmp
write_restart after_heating_press_300000_3200.lmp
System init for write_restart ...
Last active /omp style is pair_style eam/alloy/omp

next loopVar
jump in.lmp ensemble

print """
Label pachadi solti, hos garam.
"""

Label pachadi solti, hos garam.

variable T equal 3000+3*100
# variable T equal 1750

reset_timestep 0
fix 1 all npt temp $T $T $(dt*100) iso $P $P $(dt*1000)
fix 1 all npt temp 3300 $T $(dt*100) iso $P $P $(dt*1000)
fix 1 all npt temp 3300 3300 $(dt*100) iso $P $P $(dt*1000)
fix 1 all npt temp 3300 3300 0.10000000000000000555 iso $P $P $(dt*1000)
fix 1 all npt temp 3300 3300 0.10000000000000000555 iso 300000 $P $(dt*1000)
fix 1 all npt temp 3300 3300 0.10000000000000000555 iso 300000 300000 $(dt*1000)
fix 1 all npt temp 3300 3300 0.10000000000000000555 iso 300000 300000 1
print """
<--------------------------------------------------------------------->
<------------------ Equilibrating at temperature $T ----------------->
<--------------------------------------------------------------------->
"""

<--------------------------------------------------------------------->
<------------------ Equilibrating at temperature 3300 ----------------->
<--------------------------------------------------------------------->

run 250000
Last active /omp style is pair_style eam/alloy/omp
Step Temp Volume Press KinEng PotEng Density
0    3261.7239    22087.718    295907.61    863.03753   -8073.2543     9.073748
Averages over the last 126 of 251 rows, steps 125000 to 250000:
Temp Volume Press KinEng PotEng Density
3298.33 22713.3 300512 872.723 -7792.46 8.82393
Loop time of 515.85 on 8 procs for 250000 steps with 2048 atoms

# fix 132 all momentum 100 linear 1 1 1 angular

# dump 3 all custom 1000 traj_npt_new.lammpstrj id type x y z
run 50000
Last active /omp style is pair_style eam/alloy/omp
Step Temp Volume Press KinEng PotEng Density
250000    3276.0405    22750.195    299257.61    866.82564   -7787.3284     8.809524
Averages over the last 26 of 51 rows, steps 275000 to 300000:
Temp Volume Press KinEng PotEng Density
3307.62 22710.9 300629 875.181 -7792.49 8.82483
Loop time of 103.943 on 8 procs for 50000 steps with 2048 atoms

unfix temp
unfix out_file_1

write_data after_heating_press_$P_$T.in
write_data after_heating_press_300000_$T.in
write_data after_heating_press_300000_3300.in
System init for write_data ...
Last active /omp style is pair_style eam/alloy/omp
write_restart after_heating_press_$P_$T.lmp
write_restart after_heating_press_300000_$T.lmp
write_restart after_heating_press_300000_3300.lmp
System init for write_restart ...
Last active /omp style is pair_style eam/alloy/omp

next loopVar
jump in.lmp ensemble

print """
Label pachadi solti, hos garam.
"""

Label pachadi solti, hos garam.

variable T equal 3000+4*100
# variable T equal 1750

reset_timestep 0
fix 1 all npt temp $T $T $(dt*100) iso $P $P $(dt*1000)
fix 1 all npt temp 3400 $T $(dt*100) iso $P $P $(dt*1000)
fix 1 all npt temp 3400 3400 $(dt*100) iso $P $P $(dt*1000)
fix 1 all npt temp 3400 3400 0.10000000000000000555 iso $P $P $(dt*1000)
fix 1 all npt temp 3400 3400 0.10000000000000000555 iso 300000 $P $(dt*1000)
fix 1 all npt temp 3400 3400 0.10000000000000000555 iso 300000 300000 $(dt*1000)
fix 1 all npt temp 3400 3400 0.10000000000000000555 iso 300000 300000 1
print """
<--------------------------------------------------------------------->
<------------------ Equilibrating at temperature $T ----------------->
<--------------------------------------------------------------------->
"""

<--------------------------------------------------------------------->
<------------------ Equilibrating at temperature 3400 ----------------->
<--------------------------------------------------------------------->

run 250000
Last active /omp style is pair_style eam/alloy/omp
Step Temp Volume Press KinEng PotEng Density
0    3389.7059    22733.793     305102.4    896.90098   -7763.0397    8.8158799
Averages over the last 126 of 251 rows, steps 125000 to 250000:
Temp Volume Press KinEng PotEng Density
3403.64 22795 300152 900.588 -7767.63 8.79228
Loop time of 522.709 on 8 procs for 250000 steps with 2048 atoms

# fix 132 all momentum 100 linear 1 1 1 angular

# dump 3 all custom 1000 traj_npt_new.lammpstrj id type x y z
run 50000
Last active /omp style is pair_style eam/alloy/omp
Step Temp Volume Press KinEng PotEng Density
250000    3385.2229     22760.34    301281.82    895.71481   -7771.6778    8.8055974
Averages over the last 26 of 51 rows, steps 275000 to 300000:
Temp Volume Press KinEng PotEng Density
3409.25 22787.1 300755 902.071 -7767.62 8.79534
Loop time of 106.292 on 8 procs for 50000 steps with 2048 atoms

unfix temp
unfix out_file_1

write_data after_heating_press_$P_$T.in
write_data after_heating_press_300000_$T.in
write_data after_heating_press_300000_3400.in
System init for write_data ...
Last active /omp style is pair_style eam/alloy/omp
write_restart after_heating_press_$P_$T.lmp
write_restart after_heating_press_300000_$T.lmp
write_restart after_heating_press_300000_3400.lmp
System init for write_restart ...
Last active /omp style is pair_style eam/alloy/omp

next loopVar
jump in.lmp ensemble

print """
Label pachadi solti, hos garam.
"""

Label pachadi solti, hos garam.

variable T equal 3000+5*100
# variable T equal 1750

reset_timestep 0
fix 1 all npt temp $T $T $(dt*100) iso $P $P $(dt*1000)
fix 1 all npt temp 3500 $T $(dt*100) iso $P $P $(dt*1000)
fix 1 all npt temp 3500 3500 $(dt*100) iso $P $P $(dt*1000)
fix 1 all npt temp 3500 3500 0.10000000000000000555 iso $P $P $(dt*1000)
fix 1 all npt temp 3500 3500 0.10000000000000000555 iso 300000 $P $(dt*1000)
fix 1 all npt temp 3500 3500 0.10000000000000000555 iso 300000 300000 $(dt*1000)
fix 1 all npt temp 3500 3500 0.10000000000000000555 iso 300000 300000 1
print """
<--------------------------------------------------------------------->
<------------------ Equilibrating at temperature $T ----------------->
<--------------------------------------------------------------------->
"""

<--------------------------------------------------------------------->
<------------------ Equilibrating at temperature 3500 ----------------->
<--------------------------------------------------------------------->

run 250000
Last active /omp style is pair_style eam/alloy/omp
Step Temp Volume Press KinEng PotEng Density
0    3342.7171    22754.079    305371.37    884.46797   -7750.2254      8.80802
Averages over the last 126 of 251 rows, steps 125000 to 250000:
Temp Volume Press KinEng PotEng Density
3492.58 22864.7 300130 924.121 -7745.28 8.76552
Loop time of 523.385 on 8 procs for 250000 steps with 2048 atoms

# fix 132 all momentum 100 linear 1 1 1 angular

# dump 3 all custom 1000 traj_npt_new.lammpstrj id type x y z
run 50000
Last active /omp style is pair_style eam/alloy/omp
Step Temp Volume Press KinEng PotEng Density
250000    3524.0587     22885.43     292583.8    932.45012   -7769.7077    8.7574664
Averages over the last 26 of 51 rows, steps 275000 to 300000:
Temp Volume Press KinEng PotEng Density
3486.88 22838.7 301767 922.613 -7746.96 8.77546
Loop time of 108.374 on 8 procs for 50000 steps with 2048 atoms

unfix temp
unfix out_file_1

write_data after_heating_press_$P_$T.in
write_data after_heating_press_300000_$T.in
write_data after_heating_press_300000_3500.in
System init for write_data ...
Last active /omp style is pair_style eam/alloy/omp
write_restart after_heating_press_$P_$T.lmp
write_restart after_heating_press_300000_$T.lmp
write_restart after_heating_press_300000_3500.lmp
System init for write_restart ...
Last active /omp style is pair_style eam/alloy/omp

next loopVar
jump in.lmp ensemble

print """
Label pachadi solti, hos garam.
"""

Label pachadi solti, hos garam.

variable T equal 3000+6*100
# variable T equal 1750

reset_timestep 0
fix 1 all npt temp $T $T $(dt*100) iso $P $P $(dt*1000)
fix 1 all npt temp 3600 $T $(dt*100) iso $P $P $(dt*1000)
fix 1 all npt temp 3600 3600 $(dt*100) iso $P $P $(dt*1000)
fix 1 all npt temp 3600 3600 0.10000000000000000555 iso $P $P $(dt*1000)
fix 1 all npt temp 3600 3600 0.10000000000000000555 iso 300000 $P $(dt*1000)
fix 1 all npt temp 3600 3600 0.10000000000000000555 iso 300000 300000 $(dt*1000)
fix 1 all npt temp 3600 3600 0.10000000000000000555 iso 300000 300000 1
print """
<--------------------------------------------------------------------->
<------------------ Equilibrating at temperature $T ----------------->
<--------------------------------------------------------------------->
"""

<--------------------------------------------------------------------->
<------------------ Equilibrating at temperature 3600 ----------------->
<--------------------------------------------------------------------->

run 250000
Last active /omp style is pair_style eam/alloy/omp
Step Temp Volume Press KinEng PotEng Density
0    3480.4044    22953.231    291281.18    920.89939   -7754.3674     8.731598
Averages over the last 126 of 251 rows, steps 125000 to 250000:
Temp Volume Press KinEng PotEng Density
3604.26 22939.5 300075 953.671 -7721.91 8.73691
Loop time of 526.541 on 8 procs for 250000 steps with 2048 atoms

# fix 132 all momentum 100 linear 1 1 1 angular

# dump 3 all custom 1000 traj_npt_new.lammpstrj id type x y z
run 50000
Last active /omp style is pair_style eam/alloy/omp
Step Temp Volume Press KinEng PotEng Density
250000    3706.0974    22954.298    295955.66    980.61676    -7753.193    8.7311921
Averages over the last 26 of 51 rows, steps 275000 to 300000:
Temp Volume Press KinEng PotEng Density
3588.88 22946.3 298696 949.601 -7727.05 8.73429
Loop time of 111.063 on 8 procs for 50000 steps with 2048 atoms

unfix temp
unfix out_file_1

write_data after_heating_press_$P_$T.in
write_data after_heating_press_300000_$T.in
write_data after_heating_press_300000_3600.in
System init for write_data ...
Last active /omp style is pair_style eam/alloy/omp
write_restart after_heating_press_$P_$T.lmp
write_restart after_heating_press_300000_$T.lmp
write_restart after_heating_press_300000_3600.lmp
System init for write_restart ...
Last active /omp style is pair_style eam/alloy/omp

next loopVar
jump in.lmp ensemble
