LAMMPS (29 Oct 2020)
package omp 0
using multi-threaded neighbor list subroutines
package omp 2
set 2 OpenMP thread(s) per MPI task
using multi-threaded neighbor list subroutines
units metal
dimension 3
boundary p p p

lattice fcc 3.5440
Lattice spacing in x,y,z = 3.5440000 3.5440000 3.5440000
region box block 0 8 0 8 0 8 units lattice
create_box 1 box
Created orthogonal box = (0.0000000 0.0000000 0.0000000) to (28.352000 28.352000 28.352000)
create_atoms 1 box
Created 2048 atoms

# read_restart after_heating_press_0_1600.lmp

variable P equal 50000
variable dt equal 0.001
variable loopVar loop 6
variable sys_press equal "press/10000"
#variable temp_word equal "heating"

# print "step temp vol pe" file heating.txt screen no

pair_style eam/alloy
pair_coeff * * Co_Zhou04.eam.alloy Co
Reading eam/alloy potential file Co_Zhou04.eam.alloy with DATE: 2018-03-30

neighbor 2 bin
neigh_modify every 10 check yes

thermo 1000
thermo_style custom step temp vol press ke pe density

timestep $(dt)
timestep 0.0010000000000000000208

# fix 2 all npt temp 300 300 $(dt*100) iso 0 0 $(dt*1000)
# run 30000
# unfix 2

# dump_modify 1 append yes
# dump 3 all custom 10000 traj_npt_new.lammpstrj id type x y z

velocity all create 2100 123123

print """
yo aagadi
"""

yo aagadi

label ensemble

print """
Label pachadi solti, hos garam.
"""

Label pachadi solti, hos garam.

variable T equal 2000+1*100
#variable T equal 1250
# velocity all create 1200 123123
reset_timestep 0
fix 1 all npt temp $T $T $(dt*100) iso $P $P $(dt*1000)
fix 1 all npt temp 2100 $T $(dt*100) iso $P $P $(dt*1000)
fix 1 all npt temp 2100 2100 $(dt*100) iso $P $P $(dt*1000)
fix 1 all npt temp 2100 2100 0.10000000000000000555 iso $P $P $(dt*1000)
fix 1 all npt temp 2100 2100 0.10000000000000000555 iso 50000 $P $(dt*1000)
fix 1 all npt temp 2100 2100 0.10000000000000000555 iso 50000 50000 $(dt*1000)
fix 1 all npt temp 2100 2100 0.10000000000000000555 iso 50000 50000 1
print """
<--------------------------------------------------------------------->
<------------------ Equilibrating at temperature $T ----------------->
<--------------------------------------------------------------------->
"""

<--------------------------------------------------------------------->
<------------------ Equilibrating at temperature 2100 ----------------->
<--------------------------------------------------------------------->

run 250000
Last active /omp style is pair_style eam/alloy/omp
  update every 10 steps, delay 10 steps, check yes
Step Temp Volume Press KinEng PotEng Density
0         2100    22790.356    33721.934    555.65059    -9015.757        8.794
Averages over the last 126 of 251 rows, steps 125000 to 250000:
Temp Volume Press KinEng PotEng Density
2100.21 24259.4 49873.9 555.706 -8409 8.26154
Loop time of 471.14 on 8 procs for 250000 steps with 2048 atoms

# fix 132 all momentum 100 linear 1 1 1 angular

# dump 3 all custom 1000 traj_npt_new.lammpstrj id type x y z
run 50000
Last active /omp style is pair_style eam/alloy/omp
Step Temp Volume Press KinEng PotEng Density
250000    2074.2211    24235.357     44983.77    548.82961    -8438.946    8.2696694
Averages over the last 26 of 51 rows, steps 275000 to 300000:
Temp Volume Press KinEng PotEng Density
2102.57 24241.5 50730.6 556.332 -8410.63 8.26766
Loop time of 93.8861 on 8 procs for 50000 steps with 2048 atoms

unfix temp
unfix out_file_1

write_data after_heating_press_$P_$T.in
write_data after_heating_press_50000_$T.in
write_data after_heating_press_50000_2100.in
System init for write_data ...
Last active /omp style is pair_style eam/alloy/omp
write_restart after_heating_press_$P_$T.lmp
write_restart after_heating_press_50000_$T.lmp
write_restart after_heating_press_50000_2100.lmp
System init for write_restart ...
Last active /omp style is pair_style eam/alloy/omp
next loopVar
jump in.lmp ensemble

print """
Label pachadi solti, hos garam.
"""

Label pachadi solti, hos garam.

variable T equal 2000+2*100
#variable T equal 1250
# velocity all create 1200 123123
reset_timestep 0
fix 1 all npt temp $T $T $(dt*100) iso $P $P $(dt*1000)
fix 1 all npt temp 2200 $T $(dt*100) iso $P $P $(dt*1000)
fix 1 all npt temp 2200 2200 $(dt*100) iso $P $P $(dt*1000)
fix 1 all npt temp 2200 2200 0.10000000000000000555 iso $P $P $(dt*1000)
fix 1 all npt temp 2200 2200 0.10000000000000000555 iso 50000 $P $(dt*1000)
fix 1 all npt temp 2200 2200 0.10000000000000000555 iso 50000 50000 $(dt*1000)
fix 1 all npt temp 2200 2200 0.10000000000000000555 iso 50000 50000 1
print """
<--------------------------------------------------------------------->
<------------------ Equilibrating at temperature $T ----------------->
<--------------------------------------------------------------------->
"""

<--------------------------------------------------------------------->
<------------------ Equilibrating at temperature 2200 ----------------->
<--------------------------------------------------------------------->

run 250000
Last active /omp style is pair_style eam/alloy/omp
Step Temp Volume Press KinEng PotEng Density
0    2047.8311    24252.411    50577.629    541.84692   -8405.1951    8.2638541
Averages over the last 126 of 251 rows, steps 125000 to 250000:
Temp Volume Press KinEng PotEng Density
2197.68 24381.6 50263.2 581.495 -8370.81 8.22014
Loop time of 482.613 on 8 procs for 250000 steps with 2048 atoms

# fix 132 all momentum 100 linear 1 1 1 angular

# dump 3 all custom 1000 traj_npt_new.lammpstrj id type x y z
run 50000
Last active /omp style is pair_style eam/alloy/omp
Step Temp Volume Press KinEng PotEng Density
250000     2168.894    24412.455    46233.592    573.87962   -8379.3526    8.2096775
Averages over the last 26 of 51 rows, steps 275000 to 300000:
Temp Volume Press KinEng PotEng Density
2209.89 24380.1 49693.8 584.727 -8375.13 8.22063
Loop time of 95.2153 on 8 procs for 50000 steps with 2048 atoms

unfix temp
unfix out_file_1

write_data after_heating_press_$P_$T.in
write_data after_heating_press_50000_$T.in
write_data after_heating_press_50000_2200.in
System init for write_data ...
Last active /omp style is pair_style eam/alloy/omp
write_restart after_heating_press_$P_$T.lmp
write_restart after_heating_press_50000_$T.lmp
write_restart after_heating_press_50000_2200.lmp
System init for write_restart ...
Last active /omp style is pair_style eam/alloy/omp
next loopVar
jump in.lmp ensemble

print """
Label pachadi solti, hos garam.
"""

Label pachadi solti, hos garam.

variable T equal 2000+3*100
#variable T equal 1250
# velocity all create 1200 123123
reset_timestep 0
fix 1 all npt temp $T $T $(dt*100) iso $P $P $(dt*1000)
fix 1 all npt temp 2300 $T $(dt*100) iso $P $P $(dt*1000)
fix 1 all npt temp 2300 2300 $(dt*100) iso $P $P $(dt*1000)
fix 1 all npt temp 2300 2300 0.10000000000000000555 iso $P $P $(dt*1000)
fix 1 all npt temp 2300 2300 0.10000000000000000555 iso 50000 $P $(dt*1000)
fix 1 all npt temp 2300 2300 0.10000000000000000555 iso 50000 50000 $(dt*1000)
fix 1 all npt temp 2300 2300 0.10000000000000000555 iso 50000 50000 1
print """
<--------------------------------------------------------------------->
<------------------ Equilibrating at temperature $T ----------------->
<--------------------------------------------------------------------->
"""

<--------------------------------------------------------------------->
<------------------ Equilibrating at temperature 2300 ----------------->
<--------------------------------------------------------------------->

run 250000
Last active /omp style is pair_style eam/alloy/omp
Step Temp Volume Press KinEng PotEng Density
0     2209.774    24397.419    46110.237     584.6963   -8389.0416    8.2147372
Averages over the last 126 of 251 rows, steps 125000 to 250000:
Temp Volume Press KinEng PotEng Density
2299.14 24531.4 50271 608.343 -8326.6 8.16995
Loop time of 482.393 on 8 procs for 250000 steps with 2048 atoms

# fix 132 all momentum 100 linear 1 1 1 angular

# dump 3 all custom 1000 traj_npt_new.lammpstrj id type x y z
run 50000
Last active /omp style is pair_style eam/alloy/omp
Step Temp Volume Press KinEng PotEng Density
250000    2298.1772    24641.807     43235.83     608.0874   -8326.4114    8.1332666
Averages over the last 26 of 51 rows, steps 275000 to 300000:
Temp Volume Press KinEng PotEng Density
2306.14 24534.8 50753.3 610.194 -8323.45 8.16884
Loop time of 95.2085 on 8 procs for 50000 steps with 2048 atoms

unfix temp
unfix out_file_1

write_data after_heating_press_$P_$T.in
write_data after_heating_press_50000_$T.in
write_data after_heating_press_50000_2300.in
System init for write_data ...
Last active /omp style is pair_style eam/alloy/omp
write_restart after_heating_press_$P_$T.lmp
write_restart after_heating_press_50000_$T.lmp
write_restart after_heating_press_50000_2300.lmp
System init for write_restart ...
Last active /omp style is pair_style eam/alloy/omp
next loopVar
jump in.lmp ensemble

print """
Label pachadi solti, hos garam.
"""

Label pachadi solti, hos garam.

variable T equal 2000+4*100
#variable T equal 1250
# velocity all create 1200 123123
reset_timestep 0
fix 1 all npt temp $T $T $(dt*100) iso $P $P $(dt*1000)
fix 1 all npt temp 2400 $T $(dt*100) iso $P $P $(dt*1000)
fix 1 all npt temp 2400 2400 $(dt*100) iso $P $P $(dt*1000)
fix 1 all npt temp 2400 2400 0.10000000000000000555 iso $P $P $(dt*1000)
fix 1 all npt temp 2400 2400 0.10000000000000000555 iso 50000 $P $(dt*1000)
fix 1 all npt temp 2400 2400 0.10000000000000000555 iso 50000 50000 $(dt*1000)
fix 1 all npt temp 2400 2400 0.10000000000000000555 iso 50000 50000 1
print """
<--------------------------------------------------------------------->
<------------------ Equilibrating at temperature $T ----------------->
<--------------------------------------------------------------------->
"""

<--------------------------------------------------------------------->
<------------------ Equilibrating at temperature 2400 ----------------->
<--------------------------------------------------------------------->

run 250000
Last active /omp style is pair_style eam/alloy/omp
Step Temp Volume Press KinEng PotEng Density
0    2324.1629     24704.57     48248.31    614.96309   -8280.0437    8.1126038
Averages over the last 126 of 251 rows, steps 125000 to 250000:
Temp Volume Press KinEng PotEng Density
2402.21 25682.3 50205.6 635.614 -7989.32 7.80383
Loop time of 494.822 on 8 procs for 250000 steps with 2048 atoms

# fix 132 all momentum 100 linear 1 1 1 angular

# dump 3 all custom 1000 traj_npt_new.lammpstrj id type x y z
run 50000
Last active /omp style is pair_style eam/alloy/omp
Step Temp Volume Press KinEng PotEng Density
250000    2398.9498    25793.445    44175.184    634.75137   -7984.9236    7.7701285
Averages over the last 26 of 51 rows, steps 275000 to 300000:
Temp Volume Press KinEng PotEng Density
2427.73 25693.3 49723.1 642.365 -7990.45 7.80045
Loop time of 98.4708 on 8 procs for 50000 steps with 2048 atoms

unfix temp
unfix out_file_1

write_data after_heating_press_$P_$T.in
write_data after_heating_press_50000_$T.in
write_data after_heating_press_50000_2400.in
System init for write_data ...
Last active /omp style is pair_style eam/alloy/omp
write_restart after_heating_press_$P_$T.lmp
write_restart after_heating_press_50000_$T.lmp
write_restart after_heating_press_50000_2400.lmp
System init for write_restart ...
Last active /omp style is pair_style eam/alloy/omp
next loopVar
jump in.lmp ensemble

print """
Label pachadi solti, hos garam.
"""

Label pachadi solti, hos garam.

variable T equal 2000+5*100
#variable T equal 1250
# velocity all create 1200 123123
reset_timestep 0
fix 1 all npt temp $T $T $(dt*100) iso $P $P $(dt*1000)
fix 1 all npt temp 2500 $T $(dt*100) iso $P $P $(dt*1000)
fix 1 all npt temp 2500 2500 $(dt*100) iso $P $P $(dt*1000)
fix 1 all npt temp 2500 2500 0.10000000000000000555 iso $P $P $(dt*1000)
fix 1 all npt temp 2500 2500 0.10000000000000000555 iso 50000 $P $(dt*1000)
fix 1 all npt temp 2500 2500 0.10000000000000000555 iso 50000 50000 $(dt*1000)
fix 1 all npt temp 2500 2500 0.10000000000000000555 iso 50000 50000 1
print """
<--------------------------------------------------------------------->
<------------------ Equilibrating at temperature $T ----------------->
<--------------------------------------------------------------------->
"""

<--------------------------------------------------------------------->
<------------------ Equilibrating at temperature 2500 ----------------->
<--------------------------------------------------------------------->

run 250000
Last active /omp style is pair_style eam/alloy/omp
Step Temp Volume Press KinEng PotEng Density
0    2444.4325    25588.428    58488.923    646.78588    -7979.989    7.8323838
Averages over the last 126 of 251 rows, steps 125000 to 250000:
Temp Volume Press KinEng PotEng Density
2501.31 25818.2 50310.2 661.837 -7956.48 7.76276
Loop time of 479.804 on 8 procs for 250000 steps with 2048 atoms

# fix 132 all momentum 100 linear 1 1 1 angular

# dump 3 all custom 1000 traj_npt_new.lammpstrj id type x y z
run 50000
Last active /omp style is pair_style eam/alloy/omp
Step Temp Volume Press KinEng PotEng Density
250000    2512.3216    25936.052    45976.122    664.74904   -7943.5533    7.7274052
Averages over the last 26 of 51 rows, steps 275000 to 300000:
Temp Volume Press KinEng PotEng Density
2502.11 25815.3 49807.9 662.048 -7959.09 7.76364
Loop time of 93.6565 on 8 procs for 50000 steps with 2048 atoms

unfix temp
unfix out_file_1

write_data after_heating_press_$P_$T.in
write_data after_heating_press_50000_$T.in
write_data after_heating_press_50000_2500.in
System init for write_data ...
Last active /omp style is pair_style eam/alloy/omp
write_restart after_heating_press_$P_$T.lmp
write_restart after_heating_press_50000_$T.lmp
write_restart after_heating_press_50000_2500.lmp
System init for write_restart ...
Last active /omp style is pair_style eam/alloy/omp
next loopVar
jump in.lmp ensemble

print """
Label pachadi solti, hos garam.
"""

Label pachadi solti, hos garam.

variable T equal 2000+6*100
#variable T equal 1250
# velocity all create 1200 123123
reset_timestep 0
fix 1 all npt temp $T $T $(dt*100) iso $P $P $(dt*1000)
fix 1 all npt temp 2600 $T $(dt*100) iso $P $P $(dt*1000)
fix 1 all npt temp 2600 2600 $(dt*100) iso $P $P $(dt*1000)
fix 1 all npt temp 2600 2600 0.10000000000000000555 iso $P $P $(dt*1000)
fix 1 all npt temp 2600 2600 0.10000000000000000555 iso 50000 $P $(dt*1000)
fix 1 all npt temp 2600 2600 0.10000000000000000555 iso 50000 50000 $(dt*1000)
fix 1 all npt temp 2600 2600 0.10000000000000000555 iso 50000 50000 1
print """
<--------------------------------------------------------------------->
<------------------ Equilibrating at temperature $T ----------------->
<--------------------------------------------------------------------->
"""

<--------------------------------------------------------------------->
<------------------ Equilibrating at temperature 2600 ----------------->
<--------------------------------------------------------------------->

run 250000
Last active /omp style is pair_style eam/alloy/omp
Step Temp Volume Press KinEng PotEng Density
0    2525.2493    25785.693    49438.873    668.16965    -7966.717    7.7724646
Averages over the last 126 of 251 rows, steps 125000 to 250000:
Temp Volume Press KinEng PotEng Density
2602.31 25964.1 49855.7 688.56 -7923.16 7.71917
Loop time of 479.765 on 8 procs for 250000 steps with 2048 atoms

# fix 132 all momentum 100 linear 1 1 1 angular

# dump 3 all custom 1000 traj_npt_new.lammpstrj id type x y z
run 50000
Last active /omp style is pair_style eam/alloy/omp
Step Temp Volume Press KinEng PotEng Density
250000     2599.184    25878.915    51941.869    687.73243   -7941.2466    7.7444663
Averages over the last 26 of 51 rows, steps 275000 to 300000:
Temp Volume Press KinEng PotEng Density
2605.32 25947.4 50761 689.355 -7923.42 7.7241
Loop time of 96.3575 on 8 procs for 50000 steps with 2048 atoms

unfix temp
unfix out_file_1

write_data after_heating_press_$P_$T.in
write_data after_heating_press_50000_$T.in
write_data after_heating_press_50000_2600.in
System init for write_data ...
Last active /omp style is pair_style eam/alloy/omp
write_restart after_heating_press_$P_$T.lmp
write_restart after_heating_press_50000_$T.lmp
write_restart after_heating_press_50000_2600.lmp
System init for write_restart ...
Last active /omp style is pair_style eam/alloy/omp
next loopVar
jump in.lmp ensemble
