LAMMPS (29 Oct 2020)
package omp 0
using multi-threaded neighbor list subroutines
package omp 2
set 2 OpenMP thread(s) per MPI task
using multi-threaded neighbor list subroutines
# units metal
# dimension 3
# boundary p p p

# lattice fcc 3.5440
# region box block 0 8 0 8 0 8 units lattice
# create_box 1 box
# create_atoms 1 box

# read_restart after_heating_press_200000_3100.lmp
read_restart after_cooling_press_200000_1800.lmp
Reading restart file ...
  restart file = 29 Oct 2020, LAMMPS = 29 Oct 2020
  restoring atom style atomic from restart
  orthogonal box = (0.040636521 0.040636521 0.040636521) to (28.311363 28.311363 28.311363)
  pair style eam/alloy/omp stores no restart info
  2048 atoms
  read_restart CPU = 0.001 seconds

variable P equal 200000
variable dt equal 0.001
variable loopVar loop 6
variable sys_press equal "press/10000"

# variable sim string "heating"
variable sim string "cooling"

pair_style eam/alloy
pair_coeff * * Co_Zhou04.eam.alloy Co
Reading eam/alloy potential file Co_Zhou04.eam.alloy with DATE: 2018-03-30

neighbor 2 bin
neigh_modify every 10 check yes

thermo 1000
thermo_style custom step temp vol press ke pe density

timestep $(dt)
timestep 0.0010000000000000000208

# velocity all create 2600 123123

print """
yo aagadi
"""

yo aagadi

label ensemble

print """
Label pachadi solti, hos garam.
"""

Label pachadi solti, hos garam.

variable T equal 1750

reset_timestep 0
fix 1 all npt temp $T $T $(dt*100) iso $P $P $(dt*1000)
fix 1 all npt temp 1750 $T $(dt*100) iso $P $P $(dt*1000)
fix 1 all npt temp 1750 1750 $(dt*100) iso $P $P $(dt*1000)
fix 1 all npt temp 1750 1750 0.10000000000000000555 iso $P $P $(dt*1000)
fix 1 all npt temp 1750 1750 0.10000000000000000555 iso 200000 $P $(dt*1000)
fix 1 all npt temp 1750 1750 0.10000000000000000555 iso 200000 200000 $(dt*1000)
fix 1 all npt temp 1750 1750 0.10000000000000000555 iso 200000 200000 1
  fix style: npt/omp, fix ID: 1
print """
<--------------------------------------------------------------------->
<------------------ Equilibrating at temperature $T ----------------->
<--------------------------------------------------------------------->
"""

<--------------------------------------------------------------------->
<------------------ Equilibrating at temperature 1750 ----------------->
<--------------------------------------------------------------------->

run 250000
All restart file global fix info was re-assigned
Last active /omp style is pair_style eam/alloy/omp
  update every 10 steps, delay 10 steps, check yes
Step Temp Volume Press KinEng PotEng Density
0    1797.3249    22594.926    199566.65     475.5641   -8250.1736    8.8700615
Averages over the last 126 of 251 rows, steps 125000 to 250000:
Temp Volume Press KinEng PotEng Density
1748.82 22549.7 198902 462.731 -8270.21 8.88791
Loop time of 500.464 on 8 procs for 250000 steps with 2048 atoms

# fix 132 all momentum 100 linear 1 1 1 angular

# dump 3 all custom 1000 traj_npt_new.lammpstrj id type x y z
run 50000
Last active /omp style is pair_style eam/alloy/omp
Step Temp Volume Press KinEng PotEng Density
250000    1705.8672     22540.83    198481.17    451.36482   -8276.4218    8.8913491
Averages over the last 26 of 51 rows, steps 275000 to 300000:
Temp Volume Press KinEng PotEng Density
1744.21 22542.3 199795 461.511 -8268.69 8.89082
Loop time of 104.474 on 8 procs for 50000 steps with 2048 atoms

unfix temp
unfix out_file_1

write_data after_cooling_press_$P_$T.in
write_data after_cooling_press_200000_$T.in
write_data after_cooling_press_200000_1750.in
System init for write_data ...
Last active /omp style is pair_style eam/alloy/omp
write_restart after_cooling_press_$P_$T.lmp
write_restart after_cooling_press_200000_$T.lmp
write_restart after_cooling_press_200000_1750.lmp
System init for write_restart ...
Last active /omp style is pair_style eam/alloy/omp

# next loopVar
# jump in.lmp ensemble
