LAMMPS (29 Oct 2020)
package omp 0
using multi-threaded neighbor list subroutines
package omp 2
set 2 OpenMP thread(s) per MPI task
using multi-threaded neighbor list subroutines
units metal
dimension 3
boundary p p p

lattice fcc 3.5440
Lattice spacing in x,y,z = 3.5440000 3.5440000 3.5440000
region box block 0 8 0 8 0 8 units lattice
create_box 1 box
Created orthogonal box = (0.0000000 0.0000000 0.0000000) to (28.352000 28.352000 28.352000)
create_atoms 1 box
Created 2048 atoms

# read_restart after_heating_2300.lmp

variable P equal 0
variable dt equal 0.001
variable loopVar loop 22
variable sys_press equal "press/10000"
# print "step temp vol pe" file heating.txt screen no

pair_style eam/alloy
pair_coeff * * Co_Zhou04.eam.alloy Co
Reading eam/alloy potential file Co_Zhou04.eam.alloy with DATE: 2018-03-30

neighbor 2 bin
neigh_modify every 10 check yes

thermo 1000
thermo_style custom step temp vol press ke pe density

timestep $(dt)
timestep 0.0010000000000000000208

# fix 2 all npt temp 300 300 $(dt*100) iso 0 0 $(dt*1000)
# run 30000
# unfix 2

# dump_modify 1 append yes
# dump 3 all custom 10000 traj_npt_new.lammpstrj id type x y z

velocity all create 300 123123

print """
asdfasdfasdfasdfsadfasddsaffffffffffff
"""

asdfasdfasdfasdfsadfasddsaffffffffffff

label ensemble

print """
Hi HI Hi
"""

Hi HI Hi

variable T equal 200+1*100
# velocity all create $T 123123
reset_timestep 0
fix 1 all npt temp $T $T $(dt*100) iso 0 0 $(dt*1000)
fix 1 all npt temp 300 $T $(dt*100) iso 0 0 $(dt*1000)
fix 1 all npt temp 300 300 $(dt*100) iso 0 0 $(dt*1000)
fix 1 all npt temp 300 300 0.10000000000000000555 iso 0 0 $(dt*1000)
fix 1 all npt temp 300 300 0.10000000000000000555 iso 0 0 1
print """
<--------------------------------------------------------------------->
<------------------ Equilibrating at temperature $T ----------------->
<--------------------------------------------------------------------->
"""

<--------------------------------------------------------------------->
<------------------ Equilibrating at temperature 300 ----------------->
<--------------------------------------------------------------------->

run 150000
Last active /omp style is pair_style eam/alloy/omp
  update every 10 steps, delay 10 steps, check yes
Step Temp Volume Press KinEng PotEng Density
0          300    22790.356    11400.454    79.378655    -9015.757        8.794
Averages over the last 76 of 151 rows, steps 75000 to 150000:
Temp Volume Press KinEng PotEng Density
300.117 23163 382.395 79.4096 -8935.37 8.65252
Loop time of 688.177 on 4 procs for 150000 steps with 2048 atoms

# fix 132 all momentum 100 linear 1 1 1 angular

# dump 3 all custom 1000 traj_npt_new.lammpstrj id type x y z
run 50000
Last active /omp style is pair_style eam/alloy/omp
Step Temp Volume Press KinEng PotEng Density
150000    307.54001    23157.573     1005.372    81.373707   -8934.9002    8.6545504
Averages over the last 26 of 51 rows, steps 175000 to 200000:
Temp Volume Press KinEng PotEng Density
298.503 23173.9 -354.882 78.9827 -8935.01 8.64848
Loop time of 229.12 on 4 procs for 50000 steps with 2048 atoms

unfix temp
unfix out_file_1
unfix 1
# # clear
# write_data after_cooling_$T.in
# write_restart after_cooling_$T.lmp
next loopVar
# # thermo_modify flush yes
jump in.lmp ensemble

print """
Hi HI Hi
"""

Hi HI Hi

variable T equal 200+2*100
# velocity all create $T 123123
reset_timestep 0
fix 1 all npt temp $T $T $(dt*100) iso 0 0 $(dt*1000)
fix 1 all npt temp 400 $T $(dt*100) iso 0 0 $(dt*1000)
fix 1 all npt temp 400 400 $(dt*100) iso 0 0 $(dt*1000)
fix 1 all npt temp 400 400 0.10000000000000000555 iso 0 0 $(dt*1000)
fix 1 all npt temp 400 400 0.10000000000000000555 iso 0 0 1
print """
<--------------------------------------------------------------------->
<------------------ Equilibrating at temperature $T ----------------->
<--------------------------------------------------------------------->
"""

<--------------------------------------------------------------------->
<------------------ Equilibrating at temperature 400 ----------------->
<--------------------------------------------------------------------->

run 150000
Last active /omp style is pair_style eam/alloy/omp
Step Temp Volume Press KinEng PotEng Density
0    298.45731    23191.463    -2132.478    78.970467   -8937.2197    8.6419034
Averages over the last 76 of 151 rows, steps 75000 to 150000:
Temp Volume Press KinEng PotEng Density
398.524 23263.6 14.5585 105.448 -8907.47 8.61511
Loop time of 687.564 on 4 procs for 150000 steps with 2048 atoms

# fix 132 all momentum 100 linear 1 1 1 angular

# dump 3 all custom 1000 traj_npt_new.lammpstrj id type x y z
run 50000
Last active /omp style is pair_style eam/alloy/omp
Step Temp Volume Press KinEng PotEng Density
150000    404.62477    23196.322    4286.7075     107.0619   -8911.1977    8.6400933
Averages over the last 26 of 51 rows, steps 175000 to 200000:
Temp Volume Press KinEng PotEng Density
400.543 23258.1 331.371 105.982 -8908.01 8.61716
Loop time of 218.782 on 4 procs for 50000 steps with 2048 atoms

unfix temp
unfix out_file_1
unfix 1
# # clear
# write_data after_cooling_$T.in
# write_restart after_cooling_$T.lmp
next loopVar
# # thermo_modify flush yes
jump in.lmp ensemble

print """
Hi HI Hi
"""

Hi HI Hi

variable T equal 200+3*100
# velocity all create $T 123123
reset_timestep 0
fix 1 all npt temp $T $T $(dt*100) iso 0 0 $(dt*1000)
fix 1 all npt temp 500 $T $(dt*100) iso 0 0 $(dt*1000)
fix 1 all npt temp 500 500 $(dt*100) iso 0 0 $(dt*1000)
fix 1 all npt temp 500 500 0.10000000000000000555 iso 0 0 $(dt*1000)
fix 1 all npt temp 500 500 0.10000000000000000555 iso 0 0 1
print """
<--------------------------------------------------------------------->
<------------------ Equilibrating at temperature $T ----------------->
<--------------------------------------------------------------------->
"""

<--------------------------------------------------------------------->
<------------------ Equilibrating at temperature 500 ----------------->
<--------------------------------------------------------------------->

run 150000
Last active /omp style is pair_style eam/alloy/omp
Step Temp Volume Press KinEng PotEng Density
0    396.89243    23290.681   -1658.0905    105.01596   -8905.5888    8.6050891
Averages over the last 76 of 151 rows, steps 75000 to 150000:
Temp Volume Press KinEng PotEng Density
500.143 23359.9 -92.8451 132.336 -8879.96 8.57959
Loop time of 658.441 on 4 procs for 150000 steps with 2048 atoms

# fix 132 all momentum 100 linear 1 1 1 angular

# dump 3 all custom 1000 traj_npt_new.lammpstrj id type x y z
run 50000
Last active /omp style is pair_style eam/alloy/omp
Step Temp Volume Press KinEng PotEng Density
150000     507.1798    23346.232    396.32294     134.1975   -8882.9521    8.5846137
Averages over the last 26 of 51 rows, steps 175000 to 200000:
Temp Volume Press KinEng PotEng Density
499.326 23358.6 57.0911 132.119 -8879.68 8.58009
Loop time of 221.339 on 4 procs for 50000 steps with 2048 atoms

unfix temp
unfix out_file_1
unfix 1
# # clear
# write_data after_cooling_$T.in
# write_restart after_cooling_$T.lmp
next loopVar
# # thermo_modify flush yes
jump in.lmp ensemble

print """
Hi HI Hi
"""

Hi HI Hi

variable T equal 200+4*100
# velocity all create $T 123123
reset_timestep 0
fix 1 all npt temp $T $T $(dt*100) iso 0 0 $(dt*1000)
fix 1 all npt temp 600 $T $(dt*100) iso 0 0 $(dt*1000)
fix 1 all npt temp 600 600 $(dt*100) iso 0 0 $(dt*1000)
fix 1 all npt temp 600 600 0.10000000000000000555 iso 0 0 $(dt*1000)
fix 1 all npt temp 600 600 0.10000000000000000555 iso 0 0 1
print """
<--------------------------------------------------------------------->
<------------------ Equilibrating at temperature $T ----------------->
<--------------------------------------------------------------------->
"""

<--------------------------------------------------------------------->
<------------------ Equilibrating at temperature 600 ----------------->
<--------------------------------------------------------------------->

run 150000
Last active /omp style is pair_style eam/alloy/omp
Step Temp Volume Press KinEng PotEng Density
0    493.00192    23356.886    875.09711     130.4461   -8876.2489    8.5806981
Averages over the last 76 of 151 rows, steps 75000 to 150000:
Temp Volume Press KinEng PotEng Density
599.585 23454.2 87.5992 158.647 -8851.55 8.5451
Loop time of 646.073 on 4 procs for 150000 steps with 2048 atoms

# fix 132 all momentum 100 linear 1 1 1 angular

# dump 3 all custom 1000 traj_npt_new.lammpstrj id type x y z
run 50000
Last active /omp style is pair_style eam/alloy/omp
Step Temp Volume Press KinEng PotEng Density
150000    589.81692    23496.059   -3811.0963    156.06291   -8855.5959    8.5298724
Averages over the last 26 of 51 rows, steps 175000 to 200000:
Temp Volume Press KinEng PotEng Density
599.805 23458.7 -184.698 158.706 -8851.32 8.54348
Loop time of 216.756 on 4 procs for 50000 steps with 2048 atoms

unfix temp
unfix out_file_1
unfix 1
# # clear
# write_data after_cooling_$T.in
# write_restart after_cooling_$T.lmp
next loopVar
# # thermo_modify flush yes
jump in.lmp ensemble

print """
Hi HI Hi
"""

Hi HI Hi

variable T equal 200+5*100
# velocity all create $T 123123
reset_timestep 0
fix 1 all npt temp $T $T $(dt*100) iso 0 0 $(dt*1000)
fix 1 all npt temp 700 $T $(dt*100) iso 0 0 $(dt*1000)
fix 1 all npt temp 700 700 $(dt*100) iso 0 0 $(dt*1000)
fix 1 all npt temp 700 700 0.10000000000000000555 iso 0 0 $(dt*1000)
fix 1 all npt temp 700 700 0.10000000000000000555 iso 0 0 1
print """
<--------------------------------------------------------------------->
<------------------ Equilibrating at temperature $T ----------------->
<--------------------------------------------------------------------->
"""

<--------------------------------------------------------------------->
<------------------ Equilibrating at temperature 700 ----------------->
<--------------------------------------------------------------------->

run 150000
Last active /omp style is pair_style eam/alloy/omp
Step Temp Volume Press KinEng PotEng Density
0    585.93907    23454.221   -55.984035    155.03685   -8852.5757    8.5450883
Averages over the last 76 of 151 rows, steps 75000 to 150000:
Temp Volume Press KinEng PotEng Density
700.592 23554.8 -151.155 185.373 -8823.2 8.50864
Loop time of 647.636 on 4 procs for 150000 steps with 2048 atoms

# fix 132 all momentum 100 linear 1 1 1 angular

# dump 3 all custom 1000 traj_npt_new.lammpstrj id type x y z
run 50000
Last active /omp style is pair_style eam/alloy/omp
Step Temp Volume Press KinEng PotEng Density
150000    717.61141    23566.044   -13.256711    189.87676   -8819.3638    8.5045409
Averages over the last 26 of 51 rows, steps 175000 to 200000:
Temp Volume Press KinEng PotEng Density
699.906 23557.4 -312.861 185.192 -8822.82 8.50769
Loop time of 214.275 on 4 procs for 50000 steps with 2048 atoms

unfix temp
unfix out_file_1
unfix 1
# # clear
# write_data after_cooling_$T.in
# write_restart after_cooling_$T.lmp
next loopVar
# # thermo_modify flush yes
jump in.lmp ensemble

print """
Hi HI Hi
"""

Hi HI Hi

variable T equal 200+6*100
# velocity all create $T 123123
reset_timestep 0
fix 1 all npt temp $T $T $(dt*100) iso 0 0 $(dt*1000)
fix 1 all npt temp 800 $T $(dt*100) iso 0 0 $(dt*1000)
fix 1 all npt temp 800 800 $(dt*100) iso 0 0 $(dt*1000)
fix 1 all npt temp 800 800 0.10000000000000000555 iso 0 0 $(dt*1000)
fix 1 all npt temp 800 800 0.10000000000000000555 iso 0 0 1
print """
<--------------------------------------------------------------------->
<------------------ Equilibrating at temperature $T ----------------->
<--------------------------------------------------------------------->
"""

<--------------------------------------------------------------------->
<------------------ Equilibrating at temperature 800 ----------------->
<--------------------------------------------------------------------->

run 150000
Last active /omp style is pair_style eam/alloy/omp
Step Temp Volume Press KinEng PotEng Density
0    693.88706    23551.952   -15.753322    183.59941   -8822.8224    8.5096295
Averages over the last 76 of 151 rows, steps 75000 to 150000:
Temp Volume Press KinEng PotEng Density
798.493 23654.8 -222.763 211.278 -8793.85 8.47266
Loop time of 641.289 on 4 procs for 150000 steps with 2048 atoms

# fix 132 all momentum 100 linear 1 1 1 angular

# dump 3 all custom 1000 traj_npt_new.lammpstrj id type x y z
run 50000
Last active /omp style is pair_style eam/alloy/omp
Step Temp Volume Press KinEng PotEng Density
150000     791.5963    23682.546   -1134.6168    209.45283   -8788.1889    8.4627042
Averages over the last 26 of 51 rows, steps 175000 to 200000:
Temp Volume Press KinEng PotEng Density
795.47 23651.7 180.834 210.478 -8792.91 8.47377
Loop time of 214.94 on 4 procs for 50000 steps with 2048 atoms

unfix temp
unfix out_file_1
unfix 1
# # clear
# write_data after_cooling_$T.in
# write_restart after_cooling_$T.lmp
next loopVar
# # thermo_modify flush yes
jump in.lmp ensemble

print """
Hi HI Hi
"""

Hi HI Hi

variable T equal 200+7*100
# velocity all create $T 123123
reset_timestep 0
fix 1 all npt temp $T $T $(dt*100) iso 0 0 $(dt*1000)
fix 1 all npt temp 900 $T $(dt*100) iso 0 0 $(dt*1000)
fix 1 all npt temp 900 900 $(dt*100) iso 0 0 $(dt*1000)
fix 1 all npt temp 900 900 0.10000000000000000555 iso 0 0 $(dt*1000)
fix 1 all npt temp 900 900 0.10000000000000000555 iso 0 0 1
print """
<--------------------------------------------------------------------->
<------------------ Equilibrating at temperature $T ----------------->
<--------------------------------------------------------------------->
"""

<--------------------------------------------------------------------->
<------------------ Equilibrating at temperature 900 ----------------->
<--------------------------------------------------------------------->

run 150000
Last active /omp style is pair_style eam/alloy/omp
Step Temp Volume Press KinEng PotEng Density
0    801.43727     23602.75    4265.6906    212.05671   -8791.0947    8.4913149
Averages over the last 76 of 151 rows, steps 75000 to 150000:
Temp Volume Press KinEng PotEng Density
902.992 23757.7 -256.598 238.928 -8763.86 8.43598
Loop time of 642.919 on 4 procs for 150000 steps with 2048 atoms

# fix 132 all momentum 100 linear 1 1 1 angular

# dump 3 all custom 1000 traj_npt_new.lammpstrj id type x y z
run 50000
Last active /omp style is pair_style eam/alloy/omp
Step Temp Volume Press KinEng PotEng Density
150000    940.49477    23725.201    2121.1187     248.8507   -8766.6537    8.4474894
Averages over the last 26 of 51 rows, steps 175000 to 200000:
Temp Volume Press KinEng PotEng Density
902.181 23756.3 -130.987 238.713 -8763.56 8.43646
Loop time of 216.667 on 4 procs for 50000 steps with 2048 atoms

unfix temp
unfix out_file_1
unfix 1
# # clear
# write_data after_cooling_$T.in
# write_restart after_cooling_$T.lmp
next loopVar
# # thermo_modify flush yes
jump in.lmp ensemble

print """
Hi HI Hi
"""

Hi HI Hi

variable T equal 200+8*100
# velocity all create $T 123123
reset_timestep 0
fix 1 all npt temp $T $T $(dt*100) iso 0 0 $(dt*1000)
fix 1 all npt temp 1000 $T $(dt*100) iso 0 0 $(dt*1000)
fix 1 all npt temp 1000 1000 $(dt*100) iso 0 0 $(dt*1000)
fix 1 all npt temp 1000 1000 0.10000000000000000555 iso 0 0 $(dt*1000)
fix 1 all npt temp 1000 1000 0.10000000000000000555 iso 0 0 1
print """
<--------------------------------------------------------------------->
<------------------ Equilibrating at temperature $T ----------------->
<--------------------------------------------------------------------->
"""

<--------------------------------------------------------------------->
<------------------ Equilibrating at temperature 1000 ----------------->
<--------------------------------------------------------------------->

run 150000
Last active /omp style is pair_style eam/alloy/omp
Step Temp Volume Press KinEng PotEng Density
0    894.09544    23792.315   -2438.9726    236.57365   -8760.8213    8.4236605
Averages over the last 76 of 151 rows, steps 75000 to 150000:
Temp Volume Press KinEng PotEng Density
1002.07 23860.2 -94.6845 265.142 -8732.81 8.39974
Loop time of 654.762 on 4 procs for 150000 steps with 2048 atoms

# fix 132 all momentum 100 linear 1 1 1 angular

# dump 3 all custom 1000 traj_npt_new.lammpstrj id type x y z
run 50000
Last active /omp style is pair_style eam/alloy/omp
Step Temp Volume Press KinEng PotEng Density
150000    975.60277     23840.55    1155.9432    258.14012   -8733.0299    8.4066177
Averages over the last 26 of 51 rows, steps 175000 to 200000:
Temp Volume Press KinEng PotEng Density
1003.04 23864.5 -338.935 265.399 -8732.44 8.39822
Loop time of 217.458 on 4 procs for 50000 steps with 2048 atoms

unfix temp
unfix out_file_1
unfix 1
# # clear
# write_data after_cooling_$T.in
# write_restart after_cooling_$T.lmp
next loopVar
# # thermo_modify flush yes
jump in.lmp ensemble

print """
Hi HI Hi
"""

Hi HI Hi

variable T equal 200+9*100
# velocity all create $T 123123
reset_timestep 0
fix 1 all npt temp $T $T $(dt*100) iso 0 0 $(dt*1000)
fix 1 all npt temp 1100 $T $(dt*100) iso 0 0 $(dt*1000)
fix 1 all npt temp 1100 1100 $(dt*100) iso 0 0 $(dt*1000)
fix 1 all npt temp 1100 1100 0.10000000000000000555 iso 0 0 $(dt*1000)
fix 1 all npt temp 1100 1100 0.10000000000000000555 iso 0 0 1
print """
<--------------------------------------------------------------------->
<------------------ Equilibrating at temperature $T ----------------->
<--------------------------------------------------------------------->
"""

<--------------------------------------------------------------------->
<------------------ Equilibrating at temperature 1100 ----------------->
<--------------------------------------------------------------------->

run 150000
Last active /omp style is pair_style eam/alloy/omp
Step Temp Volume Press KinEng PotEng Density
0    989.15986    23907.086   -1922.6323    261.72727   -8724.6673     8.383221
Averages over the last 76 of 151 rows, steps 75000 to 150000:
Temp Volume Press KinEng PotEng Density
1097.76 23968.1 -339.867 290.463 -8702.02 8.36191
Loop time of 653.954 on 4 procs for 150000 steps with 2048 atoms

# fix 132 all momentum 100 linear 1 1 1 angular

# dump 3 all custom 1000 traj_npt_new.lammpstrj id type x y z
run 50000
Last active /omp style is pair_style eam/alloy/omp
Step Temp Volume Press KinEng PotEng Density
150000    1115.0874    23952.758   -802.24525    295.04713   -8709.7677    8.3672362
Averages over the last 26 of 51 rows, steps 175000 to 200000:
Temp Volume Press KinEng PotEng Density
1101.05 23961.8 -63.1724 291.332 -8702.84 8.36412
Loop time of 219.727 on 4 procs for 50000 steps with 2048 atoms

unfix temp
unfix out_file_1
unfix 1
# # clear
# write_data after_cooling_$T.in
# write_restart after_cooling_$T.lmp
next loopVar
# # thermo_modify flush yes
jump in.lmp ensemble

print """
Hi HI Hi
"""

Hi HI Hi

variable T equal 200+10*100
# velocity all create $T 123123
reset_timestep 0
fix 1 all npt temp $T $T $(dt*100) iso 0 0 $(dt*1000)
fix 1 all npt temp 1200 $T $(dt*100) iso 0 0 $(dt*1000)
fix 1 all npt temp 1200 1200 $(dt*100) iso 0 0 $(dt*1000)
fix 1 all npt temp 1200 1200 0.10000000000000000555 iso 0 0 $(dt*1000)
fix 1 all npt temp 1200 1200 0.10000000000000000555 iso 0 0 1
print """
<--------------------------------------------------------------------->
<------------------ Equilibrating at temperature $T ----------------->
<--------------------------------------------------------------------->
"""

<--------------------------------------------------------------------->
<------------------ Equilibrating at temperature 1200 ----------------->
<--------------------------------------------------------------------->

run 150000
Last active /omp style is pair_style eam/alloy/omp
Step Temp Volume Press KinEng PotEng Density
0    1088.5022    24000.362   -2350.8553    288.01281   -8699.0225    8.3506401
Averages over the last 76 of 151 rows, steps 75000 to 150000:
Temp Volume Press KinEng PotEng Density
1203.37 24056.9 1002.04 318.407 -8670.52 8.33105
Loop time of 657.008 on 4 procs for 150000 steps with 2048 atoms

# fix 132 all momentum 100 linear 1 1 1 angular

# dump 3 all custom 1000 traj_npt_new.lammpstrj id type x y z
run 50000
Last active /omp style is pair_style eam/alloy/omp
Step Temp Volume Press KinEng PotEng Density
150000    1227.8062    24116.514   -1183.0213    324.87202   -8664.4989    8.3104211
Averages over the last 26 of 51 rows, steps 175000 to 200000:
Temp Volume Press KinEng PotEng Density
1207.8 24050.6 1302.49 319.578 -8671.55 8.33322
Loop time of 218.005 on 4 procs for 50000 steps with 2048 atoms

unfix temp
unfix out_file_1
unfix 1
# # clear
# write_data after_cooling_$T.in
# write_restart after_cooling_$T.lmp
next loopVar
# # thermo_modify flush yes
jump in.lmp ensemble

print """
Hi HI Hi
"""

Hi HI Hi

variable T equal 200+11*100
# velocity all create $T 123123
reset_timestep 0
fix 1 all npt temp $T $T $(dt*100) iso 0 0 $(dt*1000)
fix 1 all npt temp 1300 $T $(dt*100) iso 0 0 $(dt*1000)
fix 1 all npt temp 1300 1300 $(dt*100) iso 0 0 $(dt*1000)
fix 1 all npt temp 1300 1300 0.10000000000000000555 iso 0 0 $(dt*1000)
fix 1 all npt temp 1300 1300 0.10000000000000000555 iso 0 0 1
print """
<--------------------------------------------------------------------->
<------------------ Equilibrating at temperature $T ----------------->
<--------------------------------------------------------------------->
"""

<--------------------------------------------------------------------->
<------------------ Equilibrating at temperature 1300 ----------------->
<--------------------------------------------------------------------->

run 150000
Last active /omp style is pair_style eam/alloy/omp
Step Temp Volume Press KinEng PotEng Density
0     1196.641    24031.177    2960.9824    316.62584   -8670.4639    8.3399322
Averages over the last 76 of 151 rows, steps 75000 to 150000:
Temp Volume Press KinEng PotEng Density
1298.65 24185.2 -305.964 343.617 -8638.21 8.28687
Loop time of 655.63 on 4 procs for 150000 steps with 2048 atoms

# fix 132 all momentum 100 linear 1 1 1 angular

# dump 3 all custom 1000 traj_npt_new.lammpstrj id type x y z
run 50000
Last active /omp style is pair_style eam/alloy/omp
Step Temp Volume Press KinEng PotEng Density
150000    1279.7273    24161.433    2073.7603     338.6101   -8632.9785    8.2949711
Averages over the last 26 of 51 rows, steps 175000 to 200000:
Temp Volume Press KinEng PotEng Density
1294.27 24177.2 213.339 342.459 -8637.67 8.2896
Loop time of 218.141 on 4 procs for 50000 steps with 2048 atoms

unfix temp
unfix out_file_1
unfix 1
# # clear
# write_data after_cooling_$T.in
# write_restart after_cooling_$T.lmp
next loopVar
# # thermo_modify flush yes
jump in.lmp ensemble

print """
Hi HI Hi
"""

Hi HI Hi

variable T equal 200+12*100
# velocity all create $T 123123
reset_timestep 0
fix 1 all npt temp $T $T $(dt*100) iso 0 0 $(dt*1000)
fix 1 all npt temp 1400 $T $(dt*100) iso 0 0 $(dt*1000)
fix 1 all npt temp 1400 1400 $(dt*100) iso 0 0 $(dt*1000)
fix 1 all npt temp 1400 1400 0.10000000000000000555 iso 0 0 $(dt*1000)
fix 1 all npt temp 1400 1400 0.10000000000000000555 iso 0 0 1
print """
<--------------------------------------------------------------------->
<------------------ Equilibrating at temperature $T ----------------->
<--------------------------------------------------------------------->
"""

<--------------------------------------------------------------------->
<------------------ Equilibrating at temperature 1400 ----------------->
<--------------------------------------------------------------------->

run 150000
Last active /omp style is pair_style eam/alloy/omp
Step Temp Volume Press KinEng PotEng Density
0    1321.7444    24189.217   -2562.9276    349.72765   -8649.0936    8.2854433
Averages over the last 76 of 151 rows, steps 75000 to 150000:
Temp Volume Press KinEng PotEng Density
1403.31 24292.9 118.698 371.31 -8605.03 8.25012
Loop time of 659.669 on 4 procs for 150000 steps with 2048 atoms

# fix 132 all momentum 100 linear 1 1 1 angular

# dump 3 all custom 1000 traj_npt_new.lammpstrj id type x y z
run 50000
Last active /omp style is pair_style eam/alloy/omp
Step Temp Volume Press KinEng PotEng Density
150000    1373.9119    24319.494   -2375.9704    363.53094   -8604.8423    8.2410592
Averages over the last 26 of 51 rows, steps 175000 to 200000:
Temp Volume Press KinEng PotEng Density
1398.97 24299.7 -47.6564 370.161 -8604 8.2478
Loop time of 218.991 on 4 procs for 50000 steps with 2048 atoms

unfix temp
unfix out_file_1
unfix 1
# # clear
# write_data after_cooling_$T.in
# write_restart after_cooling_$T.lmp
next loopVar
# # thermo_modify flush yes
jump in.lmp ensemble

print """
Hi HI Hi
"""

Hi HI Hi

variable T equal 200+13*100
# velocity all create $T 123123
reset_timestep 0
fix 1 all npt temp $T $T $(dt*100) iso 0 0 $(dt*1000)
fix 1 all npt temp 1500 $T $(dt*100) iso 0 0 $(dt*1000)
fix 1 all npt temp 1500 1500 $(dt*100) iso 0 0 $(dt*1000)
fix 1 all npt temp 1500 1500 0.10000000000000000555 iso 0 0 $(dt*1000)
fix 1 all npt temp 1500 1500 0.10000000000000000555 iso 0 0 1
print """
<--------------------------------------------------------------------->
<------------------ Equilibrating at temperature $T ----------------->
<--------------------------------------------------------------------->
"""

<--------------------------------------------------------------------->
<------------------ Equilibrating at temperature 1500 ----------------->
<--------------------------------------------------------------------->

run 150000
Last active /omp style is pair_style eam/alloy/omp
Step Temp Volume Press KinEng PotEng Density
0    1345.4075    24316.175    -1760.129    355.98879   -8603.7197    8.2421839
Averages over the last 76 of 151 rows, steps 75000 to 150000:
Temp Volume Press KinEng PotEng Density
1501.46 24411.1 129.612 397.279 -8570.4 8.21019
Loop time of 662.227 on 4 procs for 150000 steps with 2048 atoms

# fix 132 all momentum 100 linear 1 1 1 angular

# dump 3 all custom 1000 traj_npt_new.lammpstrj id type x y z
run 50000
Last active /omp style is pair_style eam/alloy/omp
Step Temp Volume Press KinEng PotEng Density
150000    1510.1399    24465.559   -1442.4246    399.57625   -8560.6401     8.191858
Averages over the last 26 of 51 rows, steps 175000 to 200000:
Temp Volume Press KinEng PotEng Density
1506.74 24413.5 536.719 398.675 -8568.68 8.20938
Loop time of 220.924 on 4 procs for 50000 steps with 2048 atoms

unfix temp
unfix out_file_1
unfix 1
# # clear
# write_data after_cooling_$T.in
# write_restart after_cooling_$T.lmp
next loopVar
# # thermo_modify flush yes
jump in.lmp ensemble

print """
Hi HI Hi
"""

Hi HI Hi

variable T equal 200+14*100
# velocity all create $T 123123
reset_timestep 0
fix 1 all npt temp $T $T $(dt*100) iso 0 0 $(dt*1000)
fix 1 all npt temp 1600 $T $(dt*100) iso 0 0 $(dt*1000)
fix 1 all npt temp 1600 1600 $(dt*100) iso 0 0 $(dt*1000)
fix 1 all npt temp 1600 1600 0.10000000000000000555 iso 0 0 $(dt*1000)
fix 1 all npt temp 1600 1600 0.10000000000000000555 iso 0 0 1
print """
<--------------------------------------------------------------------->
<------------------ Equilibrating at temperature $T ----------------->
<--------------------------------------------------------------------->
"""

<--------------------------------------------------------------------->
<------------------ Equilibrating at temperature 1600 ----------------->
<--------------------------------------------------------------------->

run 150000
Last active /omp style is pair_style eam/alloy/omp
Step Temp Volume Press KinEng PotEng Density
0    1544.3126    24403.155    2517.8818    408.61818   -8565.0518    8.2128065
Averages over the last 76 of 151 rows, steps 75000 to 150000:
Temp Volume Press KinEng PotEng Density
1600.34 24536.4 50.6903 423.442 -8535 8.16828
Loop time of 655.152 on 4 procs for 150000 steps with 2048 atoms

# fix 132 all momentum 100 linear 1 1 1 angular

# dump 3 all custom 1000 traj_npt_new.lammpstrj id type x y z
run 50000
Last active /omp style is pair_style eam/alloy/omp
Step Temp Volume Press KinEng PotEng Density
150000    1596.6882    24549.037   -1256.5155    422.47655   -8540.5418    8.1640019
Averages over the last 26 of 51 rows, steps 175000 to 200000:
Temp Volume Press KinEng PotEng Density
1605.01 24535.8 43.7713 424.679 -8535.76 8.16844
Loop time of 220.131 on 4 procs for 50000 steps with 2048 atoms

unfix temp
unfix out_file_1
unfix 1
# # clear
# write_data after_cooling_$T.in
# write_restart after_cooling_$T.lmp
next loopVar
# # thermo_modify flush yes
jump in.lmp ensemble

print """
Hi HI Hi
"""

Hi HI Hi

variable T equal 200+15*100
# velocity all create $T 123123
reset_timestep 0
fix 1 all npt temp $T $T $(dt*100) iso 0 0 $(dt*1000)
fix 1 all npt temp 1700 $T $(dt*100) iso 0 0 $(dt*1000)
fix 1 all npt temp 1700 1700 $(dt*100) iso 0 0 $(dt*1000)
fix 1 all npt temp 1700 1700 0.10000000000000000555 iso 0 0 $(dt*1000)
fix 1 all npt temp 1700 1700 0.10000000000000000555 iso 0 0 1
print """
<--------------------------------------------------------------------->
<------------------ Equilibrating at temperature $T ----------------->
<--------------------------------------------------------------------->
"""

<--------------------------------------------------------------------->
<------------------ Equilibrating at temperature 1700 ----------------->
<--------------------------------------------------------------------->

run 150000
Last active /omp style is pair_style eam/alloy/omp
Step Temp Volume Press KinEng PotEng Density
0    1640.7573    24609.273   -2679.6274    434.13702   -8525.6118     8.144019
Averages over the last 76 of 151 rows, steps 75000 to 150000:
Temp Volume Press KinEng PotEng Density
1701.82 24667.3 111.946 450.294 -8496.94 8.12491
Loop time of 664.571 on 4 procs for 150000 steps with 2048 atoms

# fix 132 all momentum 100 linear 1 1 1 angular

# dump 3 all custom 1000 traj_npt_new.lammpstrj id type x y z
run 50000
Last active /omp style is pair_style eam/alloy/omp
Step Temp Volume Press KinEng PotEng Density
150000    1689.1272    24777.237   -4586.3126    446.93548   -8480.8122     8.088811
Averages over the last 26 of 51 rows, steps 175000 to 200000:
Temp Volume Press KinEng PotEng Density
1698.02 24658.8 130.919 449.289 -8499.79 8.12772
Loop time of 228.541 on 4 procs for 50000 steps with 2048 atoms

unfix temp
unfix out_file_1
unfix 1
# # clear
# write_data after_cooling_$T.in
# write_restart after_cooling_$T.lmp
next loopVar
# # thermo_modify flush yes
jump in.lmp ensemble

print """
Hi HI Hi
"""

Hi HI Hi

variable T equal 200+16*100
# velocity all create $T 123123
reset_timestep 0
fix 1 all npt temp $T $T $(dt*100) iso 0 0 $(dt*1000)
fix 1 all npt temp 1800 $T $(dt*100) iso 0 0 $(dt*1000)
fix 1 all npt temp 1800 1800 $(dt*100) iso 0 0 $(dt*1000)
fix 1 all npt temp 1800 1800 0.10000000000000000555 iso 0 0 $(dt*1000)
fix 1 all npt temp 1800 1800 0.10000000000000000555 iso 0 0 1
print """
<--------------------------------------------------------------------->
<------------------ Equilibrating at temperature $T ----------------->
<--------------------------------------------------------------------->
"""

<--------------------------------------------------------------------->
<------------------ Equilibrating at temperature 1800 ----------------->
<--------------------------------------------------------------------->

run 150000
Last active /omp style is pair_style eam/alloy/omp
Step Temp Volume Press KinEng PotEng Density
0    1708.3101    24481.357    5237.3463    452.01118   -8532.4832    8.1865716
Averages over the last 76 of 151 rows, steps 75000 to 150000:
Temp Volume Press KinEng PotEng Density
1794.3 24802.4 -268.92 474.764 -8460.01 8.08068
Loop time of 667.145 on 4 procs for 150000 steps with 2048 atoms

# fix 132 all momentum 100 linear 1 1 1 angular

# dump 3 all custom 1000 traj_npt_new.lammpstrj id type x y z
run 50000
Last active /omp style is pair_style eam/alloy/omp
Step Temp Volume Press KinEng PotEng Density
150000    1812.0906    24845.975   -2550.1703    479.47104   -8462.5835    8.0664328
Averages over the last 26 of 51 rows, steps 175000 to 200000:
Temp Volume Press KinEng PotEng Density
1802.95 24789.1 257.799 477.051 -8462.62 8.08502
Loop time of 218.726 on 4 procs for 50000 steps with 2048 atoms

unfix temp
unfix out_file_1
unfix 1
# # clear
# write_data after_cooling_$T.in
# write_restart after_cooling_$T.lmp
next loopVar
# # thermo_modify flush yes
jump in.lmp ensemble

print """
Hi HI Hi
"""

Hi HI Hi

variable T equal 200+17*100
# velocity all create $T 123123
reset_timestep 0
fix 1 all npt temp $T $T $(dt*100) iso 0 0 $(dt*1000)
fix 1 all npt temp 1900 $T $(dt*100) iso 0 0 $(dt*1000)
fix 1 all npt temp 1900 1900 $(dt*100) iso 0 0 $(dt*1000)
fix 1 all npt temp 1900 1900 0.10000000000000000555 iso 0 0 $(dt*1000)
fix 1 all npt temp 1900 1900 0.10000000000000000555 iso 0 0 1
print """
<--------------------------------------------------------------------->
<------------------ Equilibrating at temperature $T ----------------->
<--------------------------------------------------------------------->
"""

<--------------------------------------------------------------------->
<------------------ Equilibrating at temperature 1900 ----------------->
<--------------------------------------------------------------------->

run 150000
Last active /omp style is pair_style eam/alloy/omp
Step Temp Volume Press KinEng PotEng Density
0     1787.672    24855.376   -937.24466       473.01   -8448.2006    8.0633817
Averages over the last 76 of 151 rows, steps 75000 to 150000:
Temp Volume Press KinEng PotEng Density
1901.46 24945.3 27.6011 503.116 -8418.9 8.03439
Loop time of 650.37 on 4 procs for 150000 steps with 2048 atoms

# fix 132 all momentum 100 linear 1 1 1 angular

# dump 3 all custom 1000 traj_npt_new.lammpstrj id type x y z
run 50000
Last active /omp style is pair_style eam/alloy/omp
Step Temp Volume Press KinEng PotEng Density
150000    1868.9867    24919.967    2256.7998    494.52551   -8416.3648    8.0424819
Averages over the last 26 of 51 rows, steps 175000 to 200000:
Temp Volume Press KinEng PotEng Density
1902.83 24951.7 37.3856 503.479 -8416.5 8.0323
Loop time of 227.58 on 4 procs for 50000 steps with 2048 atoms

unfix temp
unfix out_file_1
unfix 1
# # clear
# write_data after_cooling_$T.in
# write_restart after_cooling_$T.lmp
next loopVar
# # thermo_modify flush yes
jump in.lmp ensemble

print """
Hi HI Hi
"""

Hi HI Hi

variable T equal 200+18*100
# velocity all create $T 123123
reset_timestep 0
fix 1 all npt temp $T $T $(dt*100) iso 0 0 $(dt*1000)
fix 1 all npt temp 2000 $T $(dt*100) iso 0 0 $(dt*1000)
fix 1 all npt temp 2000 2000 $(dt*100) iso 0 0 $(dt*1000)
fix 1 all npt temp 2000 2000 0.10000000000000000555 iso 0 0 $(dt*1000)
fix 1 all npt temp 2000 2000 0.10000000000000000555 iso 0 0 1
print """
<--------------------------------------------------------------------->
<------------------ Equilibrating at temperature $T ----------------->
<--------------------------------------------------------------------->
"""

<--------------------------------------------------------------------->
<------------------ Equilibrating at temperature 2000 ----------------->
<--------------------------------------------------------------------->

run 150000
Last active /omp style is pair_style eam/alloy/omp
Step Temp Volume Press KinEng PotEng Density
0     1889.849    24991.353    178.98118    500.04557   -8402.8192    8.0195092
Averages over the last 76 of 151 rows, steps 75000 to 150000:
Temp Volume Press KinEng PotEng Density
2004.99 25114.9 -103.765 530.511 -8371.16 7.98014
Loop time of 670.587 on 4 procs for 150000 steps with 2048 atoms

# fix 132 all momentum 100 linear 1 1 1 angular

# dump 3 all custom 1000 traj_npt_new.lammpstrj id type x y z
run 50000
Last active /omp style is pair_style eam/alloy/omp
Step Temp Volume Press KinEng PotEng Density
150000    1943.9127    25135.916   -2130.9143     514.3506   -8367.3472    7.9733871
Averages over the last 26 of 51 rows, steps 175000 to 200000:
Temp Volume Press KinEng PotEng Density
2001.53 25115.2 169.35 529.595 -8369.55 7.98002
Loop time of 234.301 on 4 procs for 50000 steps with 2048 atoms

unfix temp
unfix out_file_1
unfix 1
# # clear
# write_data after_cooling_$T.in
# write_restart after_cooling_$T.lmp
next loopVar
# # thermo_modify flush yes
jump in.lmp ensemble

print """
Hi HI Hi
"""

Hi HI Hi

variable T equal 200+19*100
# velocity all create $T 123123
reset_timestep 0
fix 1 all npt temp $T $T $(dt*100) iso 0 0 $(dt*1000)
fix 1 all npt temp 2100 $T $(dt*100) iso 0 0 $(dt*1000)
fix 1 all npt temp 2100 2100 $(dt*100) iso 0 0 $(dt*1000)
fix 1 all npt temp 2100 2100 0.10000000000000000555 iso 0 0 $(dt*1000)
fix 1 all npt temp 2100 2100 0.10000000000000000555 iso 0 0 1
print """
<--------------------------------------------------------------------->
<------------------ Equilibrating at temperature $T ----------------->
<--------------------------------------------------------------------->
"""

<--------------------------------------------------------------------->
<------------------ Equilibrating at temperature 2100 ----------------->
<--------------------------------------------------------------------->

run 150000
Last active /omp style is pair_style eam/alloy/omp
Step Temp Volume Press KinEng PotEng Density
0    1935.6604    25087.309   -2720.2696    512.16706   -8385.3847    7.9888356
Averages over the last 76 of 151 rows, steps 75000 to 150000:
Temp Volume Press KinEng PotEng Density
2093.95 25302.1 -454.088 554.049 -8320.52 7.92113
Loop time of 696.343 on 4 procs for 150000 steps with 2048 atoms

# fix 132 all momentum 100 linear 1 1 1 angular

# dump 3 all custom 1000 traj_npt_new.lammpstrj id type x y z
run 50000
Last active /omp style is pair_style eam/alloy/omp
Step Temp Volume Press KinEng PotEng Density
150000    2112.5944    25326.711   -2333.3263    558.98301   -8320.5981    7.9133207
Averages over the last 26 of 51 rows, steps 175000 to 200000:
Temp Volume Press KinEng PotEng Density
2109.19 25317.2 -224.427 558.082 -8315.45 7.91637
Loop time of 221.446 on 4 procs for 50000 steps with 2048 atoms

unfix temp
unfix out_file_1
unfix 1
# # clear
# write_data after_cooling_$T.in
# write_restart after_cooling_$T.lmp
next loopVar
# # thermo_modify flush yes
jump in.lmp ensemble

print """
Hi HI Hi
"""

Hi HI Hi

variable T equal 200+20*100
# velocity all create $T 123123
reset_timestep 0
fix 1 all npt temp $T $T $(dt*100) iso 0 0 $(dt*1000)
fix 1 all npt temp 2200 $T $(dt*100) iso 0 0 $(dt*1000)
fix 1 all npt temp 2200 2200 $(dt*100) iso 0 0 $(dt*1000)
fix 1 all npt temp 2200 2200 0.10000000000000000555 iso 0 0 $(dt*1000)
fix 1 all npt temp 2200 2200 0.10000000000000000555 iso 0 0 1
print """
<--------------------------------------------------------------------->
<------------------ Equilibrating at temperature $T ----------------->
<--------------------------------------------------------------------->
"""

<--------------------------------------------------------------------->
<------------------ Equilibrating at temperature 2200 ----------------->
<--------------------------------------------------------------------->

run 150000
Last active /omp style is pair_style eam/alloy/omp
Step Temp Volume Press KinEng PotEng Density
0    2135.2508    25394.784     191.0481    564.97779   -8294.5095    7.8921084
Averages over the last 76 of 151 rows, steps 75000 to 150000:
Temp Volume Press KinEng PotEng Density
2194.85 26607.8 -507.389 580.747 -7969.86 7.53241
Loop time of 638.543 on 4 procs for 150000 steps with 2048 atoms

# fix 132 all momentum 100 linear 1 1 1 angular

# dump 3 all custom 1000 traj_npt_new.lammpstrj id type x y z
run 50000
Last active /omp style is pair_style eam/alloy/omp
Step Temp Volume Press KinEng PotEng Density
150000    2206.9265    26676.413   -2250.1608    583.94287   -7959.4331    7.5129436
Averages over the last 26 of 51 rows, steps 175000 to 200000:
Temp Volume Press KinEng PotEng Density
2195.09 26597.5 -278.488 580.811 -7971.05 7.53533
Loop time of 215.312 on 4 procs for 50000 steps with 2048 atoms

unfix temp
unfix out_file_1
unfix 1
# # clear
# write_data after_cooling_$T.in
# write_restart after_cooling_$T.lmp
next loopVar
# # thermo_modify flush yes
jump in.lmp ensemble

print """
Hi HI Hi
"""

Hi HI Hi

variable T equal 200+21*100
# velocity all create $T 123123
reset_timestep 0
fix 1 all npt temp $T $T $(dt*100) iso 0 0 $(dt*1000)
fix 1 all npt temp 2300 $T $(dt*100) iso 0 0 $(dt*1000)
fix 1 all npt temp 2300 2300 $(dt*100) iso 0 0 $(dt*1000)
fix 1 all npt temp 2300 2300 0.10000000000000000555 iso 0 0 $(dt*1000)
fix 1 all npt temp 2300 2300 0.10000000000000000555 iso 0 0 1
print """
<--------------------------------------------------------------------->
<------------------ Equilibrating at temperature $T ----------------->
<--------------------------------------------------------------------->
"""

<--------------------------------------------------------------------->
<------------------ Equilibrating at temperature 2300 ----------------->
<--------------------------------------------------------------------->

run 150000
Last active /omp style is pair_style eam/alloy/omp
Loop time of 640.716 on 4 procs for 150000 steps with 2048 atoms

# fix 132 all momentum 100 linear 1 1 1 angular

# dump 3 all custom 1000 traj_npt_new.lammpstrj id type x y z
run 50000
Last active /omp style is pair_style eam/alloy/omp
Loop time of 211.172 on 4 procs for 50000 steps with 2048 atoms

unfix temp
unfix out_file_1
unfix 1
# # clear
# write_data after_cooling_$T.in
# write_restart after_cooling_$T.lmp
next loopVar
# # thermo_modify flush yes
jump in.lmp ensemble

print """
Hi HI Hi
"""

Hi HI Hi

variable T equal 200+22*100
# velocity all create $T 123123
reset_timestep 0
fix 1 all npt temp $T $T $(dt*100) iso 0 0 $(dt*1000)
fix 1 all npt temp 2400 $T $(dt*100) iso 0 0 $(dt*1000)
fix 1 all npt temp 2400 2400 $(dt*100) iso 0 0 $(dt*1000)
fix 1 all npt temp 2400 2400 0.10000000000000000555 iso 0 0 $(dt*1000)
fix 1 all npt temp 2400 2400 0.10000000000000000555 iso 0 0 1
print """
<--------------------------------------------------------------------->
<------------------ Equilibrating at temperature $T ----------------->
<--------------------------------------------------------------------->
"""

<--------------------------------------------------------------------->
<------------------ Equilibrating at temperature 2400 ----------------->
<--------------------------------------------------------------------->

run 150000
Last active /omp style is pair_style eam/alloy/omp
Loop time of 616.912 on 4 procs for 150000 steps with 2048 atoms

# fix 132 all momentum 100 linear 1 1 1 angular

# dump 3 all custom 1000 traj_npt_new.lammpstrj id type x y z
run 50000
Last active /omp style is pair_style eam/alloy/omp
Loop time of 204.906 on 4 procs for 50000 steps with 2048 atoms

unfix temp
unfix out_file_1
unfix 1
# # clear
# write_data after_cooling_$T.in
# write_restart after_cooling_$T.lmp
next loopVar
# # thermo_modify flush yes
jump in.lmp ensemble
# jump ensemble

write_data after_heating_$T_.in
write_data after_heating_2400_.in
System init for write_data ...
Last active /omp style is pair_style eam/alloy/omp
write_restart after_heating_$T.lmp
write_restart after_heating_2400.lmp
System init for write_restart ...
Last active /omp style is pair_style eam/alloy/omp
