LAMMPS (29 Oct 2020)
package omp 0
using multi-threaded neighbor list subroutines
package omp 2
set 2 OpenMP thread(s) per MPI task
using multi-threaded neighbor list subroutines
# units metal  #<----->
# dimension 3
# boundary p p p

# lattice fcc 3.5440
# region box block 0 8 0 8 0 8 units lattice
# create_box 1 box
# create_atoms 1 box

read_restart after_heating_press_300000_3600.lmp  #<----->
Reading restart file ...
  restart file = 29 Oct 2020, LAMMPS = 29 Oct 2020
  restoring atom style atomic from restart
  orthogonal box = (-0.053005081 -0.053005081 -0.053005081) to (28.405005 28.405005 28.405005)
  pair style eam/alloy/omp stores no restart info
  2048 atoms
  read_restart CPU = 0.006 seconds
# read_restart after_cooling_press_200000_1800.lmp

variable P equal 300000
variable dt equal 0.001
variable loopVar loop 6
variable sys_press equal "press/10000"

# variable sim string "heating"  #<----->
variable sim string "cooling"

pair_style eam/alloy
pair_coeff * * Co_Zhou04.eam.alloy Co
Reading eam/alloy potential file Co_Zhou04.eam.alloy with DATE: 2018-03-30

neighbor 2 bin
neigh_modify every 10 check yes

thermo 1000
thermo_style custom step temp vol press ke pe density

timestep $(dt)
timestep 0.0010000000000000000208

# velocity all create 3100 123123

print """
yo aagadi
"""

yo aagadi

label ensemble

print """
Label pachadi solti, hos garam.
"""

Label pachadi solti, hos garam.

variable T equal 2300-1*100
# variable T equal 3250

reset_timestep 0
fix 1 all npt temp $T $T $(dt*100) iso $P $P $(dt*1000)
fix 1 all npt temp 2200 $T $(dt*100) iso $P $P $(dt*1000)
fix 1 all npt temp 2200 2200 $(dt*100) iso $P $P $(dt*1000)
fix 1 all npt temp 2200 2200 0.10000000000000000555 iso $P $P $(dt*1000)
fix 1 all npt temp 2200 2200 0.10000000000000000555 iso 300000 $P $(dt*1000)
fix 1 all npt temp 2200 2200 0.10000000000000000555 iso 300000 300000 $(dt*1000)
fix 1 all npt temp 2200 2200 0.10000000000000000555 iso 300000 300000 1
  fix style: npt/omp, fix ID: 1
print """
<--------------------------------------------------------------------->
<------------------ Equilibrating at temperature $T ----------------->
<--------------------------------------------------------------------->
"""

<--------------------------------------------------------------------->
<------------------ Equilibrating at temperature 2200 ----------------->
<--------------------------------------------------------------------->

run 250000
All restart file global fix info was re-assigned
Last active /omp style is pair_style eam/alloy/omp
  update every 10 steps, delay 10 steps, check yes
Step Temp Volume Press KinEng PotEng Density
0      3576.89    23046.957    285274.65    946.42905   -7756.5619    8.6960889
Averages over the last 126 of 251 rows, steps 125000 to 250000:
Temp Volume Press KinEng PotEng Density
2204.09 21891.2 299877 583.193 -8075.93 9.15525
Loop time of 503.787 on 8 procs for 250000 steps with 2048 atoms

# fix 132 all momentum 100 linear 1 1 1 angular

# dump 3 all custom 1000 traj_npt_new.lammpstrj id type x y z
run 50000
Last active /omp style is pair_style eam/alloy/omp
Step Temp Volume Press KinEng PotEng Density
250000    2199.9053    21858.082    306432.78    582.08509    -8060.289    9.1690748
Averages over the last 26 of 51 rows, steps 275000 to 300000:
Temp Volume Press KinEng PotEng Density
2193.85 21887.1 299740 580.484 -8077.31 9.15699
Loop time of 105.595 on 8 procs for 50000 steps with 2048 atoms

unfix temp
unfix out_file_1

write_data after_cooling_press_$P_$T.in
write_data after_cooling_press_300000_$T.in
write_data after_cooling_press_300000_2200.in
System init for write_data ...
Last active /omp style is pair_style eam/alloy/omp
write_restart after_cooling_press_$P_$T.lmp
write_restart after_cooling_press_300000_$T.lmp
write_restart after_cooling_press_300000_2200.lmp
System init for write_restart ...
Last active /omp style is pair_style eam/alloy/omp

next loopVar  #<----->
jump in.lmp ensemble

print """
Label pachadi solti, hos garam.
"""

Label pachadi solti, hos garam.

variable T equal 2300-2*100
# variable T equal 3250

reset_timestep 0
fix 1 all npt temp $T $T $(dt*100) iso $P $P $(dt*1000)
fix 1 all npt temp 2100 $T $(dt*100) iso $P $P $(dt*1000)
fix 1 all npt temp 2100 2100 $(dt*100) iso $P $P $(dt*1000)
fix 1 all npt temp 2100 2100 0.10000000000000000555 iso $P $P $(dt*1000)
fix 1 all npt temp 2100 2100 0.10000000000000000555 iso 300000 $P $(dt*1000)
fix 1 all npt temp 2100 2100 0.10000000000000000555 iso 300000 300000 $(dt*1000)
fix 1 all npt temp 2100 2100 0.10000000000000000555 iso 300000 300000 1
print """
<--------------------------------------------------------------------->
<------------------ Equilibrating at temperature $T ----------------->
<--------------------------------------------------------------------->
"""

<--------------------------------------------------------------------->
<------------------ Equilibrating at temperature 2100 ----------------->
<--------------------------------------------------------------------->

run 250000
Last active /omp style is pair_style eam/alloy/omp
Step Temp Volume Press KinEng PotEng Density
0     2165.318    21834.075    302681.73    572.93344    -8083.505    9.1791563
Averages over the last 126 of 251 rows, steps 125000 to 250000:
Temp Volume Press KinEng PotEng Density
2100.42 21811.9 299822 555.761 -8105.01 9.18853
Loop time of 528.598 on 8 procs for 250000 steps with 2048 atoms

# fix 132 all momentum 100 linear 1 1 1 angular

# dump 3 all custom 1000 traj_npt_new.lammpstrj id type x y z
run 50000
Last active /omp style is pair_style eam/alloy/omp
Step Temp Volume Press KinEng PotEng Density
250000    2074.5851     21908.38    290175.58    548.92592   -8111.1105     9.148024
Averages over the last 26 of 51 rows, steps 275000 to 300000:
Temp Volume Press KinEng PotEng Density
2092.26 21812.6 300799 553.604 -8099.69 9.18824
Loop time of 105.117 on 8 procs for 50000 steps with 2048 atoms

unfix temp
unfix out_file_1

write_data after_cooling_press_$P_$T.in
write_data after_cooling_press_300000_$T.in
write_data after_cooling_press_300000_2100.in
System init for write_data ...
Last active /omp style is pair_style eam/alloy/omp
write_restart after_cooling_press_$P_$T.lmp
write_restart after_cooling_press_300000_$T.lmp
write_restart after_cooling_press_300000_2100.lmp
System init for write_restart ...
Last active /omp style is pair_style eam/alloy/omp

next loopVar  #<----->
jump in.lmp ensemble

print """
Label pachadi solti, hos garam.
"""

Label pachadi solti, hos garam.

variable T equal 2300-3*100
# variable T equal 3250

reset_timestep 0
fix 1 all npt temp $T $T $(dt*100) iso $P $P $(dt*1000)
fix 1 all npt temp 2000 $T $(dt*100) iso $P $P $(dt*1000)
fix 1 all npt temp 2000 2000 $(dt*100) iso $P $P $(dt*1000)
fix 1 all npt temp 2000 2000 0.10000000000000000555 iso $P $P $(dt*1000)
fix 1 all npt temp 2000 2000 0.10000000000000000555 iso 300000 $P $(dt*1000)
fix 1 all npt temp 2000 2000 0.10000000000000000555 iso 300000 300000 $(dt*1000)
fix 1 all npt temp 2000 2000 0.10000000000000000555 iso 300000 300000 1
print """
<--------------------------------------------------------------------->
<------------------ Equilibrating at temperature $T ----------------->
<--------------------------------------------------------------------->
"""

<--------------------------------------------------------------------->
<------------------ Equilibrating at temperature 2000 ----------------->
<--------------------------------------------------------------------->

run 250000
Last active /omp style is pair_style eam/alloy/omp
Step Temp Volume Press KinEng PotEng Density
0    2129.8301    21858.818    294663.52     563.5435    -8110.685    9.1687659
Averages over the last 126 of 251 rows, steps 125000 to 250000:
Temp Volume Press KinEng PotEng Density
1996.08 21734 300040 528.154 -8132.39 9.22147
Loop time of 522.464 on 8 procs for 250000 steps with 2048 atoms

# fix 132 all momentum 100 linear 1 1 1 angular

# dump 3 all custom 1000 traj_npt_new.lammpstrj id type x y z
run 50000
Last active /omp style is pair_style eam/alloy/omp
Step Temp Volume Press KinEng PotEng Density
250000    2012.7699    21725.807    304012.15    532.56989   -8122.8222    9.2248995
Averages over the last 26 of 51 rows, steps 275000 to 300000:
Temp Volume Press KinEng PotEng Density
2003.27 21736.4 299912 530.056 -8132.34 9.22043
Loop time of 105.478 on 8 procs for 50000 steps with 2048 atoms

unfix temp
unfix out_file_1

write_data after_cooling_press_$P_$T.in
write_data after_cooling_press_300000_$T.in
write_data after_cooling_press_300000_2000.in
System init for write_data ...
Last active /omp style is pair_style eam/alloy/omp
write_restart after_cooling_press_$P_$T.lmp
write_restart after_cooling_press_300000_$T.lmp
write_restart after_cooling_press_300000_2000.lmp
System init for write_restart ...
Last active /omp style is pair_style eam/alloy/omp

next loopVar  #<----->
jump in.lmp ensemble

print """
Label pachadi solti, hos garam.
"""

Label pachadi solti, hos garam.

variable T equal 2300-4*100
# variable T equal 3250

reset_timestep 0
fix 1 all npt temp $T $T $(dt*100) iso $P $P $(dt*1000)
fix 1 all npt temp 1900 $T $(dt*100) iso $P $P $(dt*1000)
fix 1 all npt temp 1900 1900 $(dt*100) iso $P $P $(dt*1000)
fix 1 all npt temp 1900 1900 0.10000000000000000555 iso $P $P $(dt*1000)
fix 1 all npt temp 1900 1900 0.10000000000000000555 iso 300000 $P $(dt*1000)
fix 1 all npt temp 1900 1900 0.10000000000000000555 iso 300000 300000 $(dt*1000)
fix 1 all npt temp 1900 1900 0.10000000000000000555 iso 300000 300000 1
print """
<--------------------------------------------------------------------->
<------------------ Equilibrating at temperature $T ----------------->
<--------------------------------------------------------------------->
"""

<--------------------------------------------------------------------->
<------------------ Equilibrating at temperature 1900 ----------------->
<--------------------------------------------------------------------->

run 250000
Last active /omp style is pair_style eam/alloy/omp
Step Temp Volume Press KinEng PotEng Density
0    2018.6929    21745.128    298965.69     534.1371   -8135.4641    9.2167032
Averages over the last 126 of 251 rows, steps 125000 to 250000:
Temp Volume Press KinEng PotEng Density
1899.44 21647.3 300814 502.582 -8161.97 9.25839
Loop time of 522.467 on 8 procs for 250000 steps with 2048 atoms

# fix 132 all momentum 100 linear 1 1 1 angular

# dump 3 all custom 1000 traj_npt_new.lammpstrj id type x y z
run 50000
Last active /omp style is pair_style eam/alloy/omp
Step Temp Volume Press KinEng PotEng Density
250000    1885.6074    21723.268    291698.11    498.92327   -8169.4553    9.2259779
Averages over the last 26 of 51 rows, steps 275000 to 300000:
Temp Volume Press KinEng PotEng Density
1897.98 21664.7 298617 502.198 -8164.14 9.25096
Loop time of 106.46 on 8 procs for 50000 steps with 2048 atoms

unfix temp
unfix out_file_1

write_data after_cooling_press_$P_$T.in
write_data after_cooling_press_300000_$T.in
write_data after_cooling_press_300000_1900.in
System init for write_data ...
Last active /omp style is pair_style eam/alloy/omp
write_restart after_cooling_press_$P_$T.lmp
write_restart after_cooling_press_300000_$T.lmp
write_restart after_cooling_press_300000_1900.lmp
System init for write_restart ...
Last active /omp style is pair_style eam/alloy/omp

next loopVar  #<----->
jump in.lmp ensemble

print """
Label pachadi solti, hos garam.
"""

Label pachadi solti, hos garam.

variable T equal 2300-5*100
# variable T equal 3250

reset_timestep 0
fix 1 all npt temp $T $T $(dt*100) iso $P $P $(dt*1000)
fix 1 all npt temp 1800 $T $(dt*100) iso $P $P $(dt*1000)
fix 1 all npt temp 1800 1800 $(dt*100) iso $P $P $(dt*1000)
fix 1 all npt temp 1800 1800 0.10000000000000000555 iso $P $P $(dt*1000)
fix 1 all npt temp 1800 1800 0.10000000000000000555 iso 300000 $P $(dt*1000)
fix 1 all npt temp 1800 1800 0.10000000000000000555 iso 300000 300000 $(dt*1000)
fix 1 all npt temp 1800 1800 0.10000000000000000555 iso 300000 300000 1
print """
<--------------------------------------------------------------------->
<------------------ Equilibrating at temperature $T ----------------->
<--------------------------------------------------------------------->
"""

<--------------------------------------------------------------------->
<------------------ Equilibrating at temperature 1800 ----------------->
<--------------------------------------------------------------------->

run 250000
Last active /omp style is pair_style eam/alloy/omp
Step Temp Volume Press KinEng PotEng Density
0    1912.0589    21683.356    296402.31    505.92222   -8165.5583    9.2429596
Averages over the last 126 of 251 rows, steps 125000 to 250000:
Temp Volume Press KinEng PotEng Density
1798.95 21140.9 299217 475.993 -8399.91 9.48017
Loop time of 508.924 on 8 procs for 250000 steps with 2048 atoms

# fix 132 all momentum 100 linear 1 1 1 angular

# dump 3 all custom 1000 traj_npt_new.lammpstrj id type x y z
run 50000
Last active /omp style is pair_style eam/alloy/omp
Step Temp Volume Press KinEng PotEng Density
250000    1794.3157     21157.25    296061.21    474.76788   -8407.0328    9.4727996
Averages over the last 26 of 51 rows, steps 275000 to 300000:
Temp Volume Press KinEng PotEng Density
1800.05 21123.8 300827 476.286 -8400.41 9.48786
Loop time of 101.42 on 8 procs for 50000 steps with 2048 atoms

unfix temp
unfix out_file_1

write_data after_cooling_press_$P_$T.in
write_data after_cooling_press_300000_$T.in
write_data after_cooling_press_300000_1800.in
System init for write_data ...
Last active /omp style is pair_style eam/alloy/omp
write_restart after_cooling_press_$P_$T.lmp
write_restart after_cooling_press_300000_$T.lmp
write_restart after_cooling_press_300000_1800.lmp
System init for write_restart ...
Last active /omp style is pair_style eam/alloy/omp

next loopVar  #<----->
jump in.lmp ensemble

print """
Label pachadi solti, hos garam.
"""

Label pachadi solti, hos garam.

variable T equal 2300-6*100
# variable T equal 3250

reset_timestep 0
fix 1 all npt temp $T $T $(dt*100) iso $P $P $(dt*1000)
fix 1 all npt temp 1700 $T $(dt*100) iso $P $P $(dt*1000)
fix 1 all npt temp 1700 1700 $(dt*100) iso $P $P $(dt*1000)
fix 1 all npt temp 1700 1700 0.10000000000000000555 iso $P $P $(dt*1000)
fix 1 all npt temp 1700 1700 0.10000000000000000555 iso 300000 $P $(dt*1000)
fix 1 all npt temp 1700 1700 0.10000000000000000555 iso 300000 300000 $(dt*1000)
fix 1 all npt temp 1700 1700 0.10000000000000000555 iso 300000 300000 1
print """
<--------------------------------------------------------------------->
<------------------ Equilibrating at temperature $T ----------------->
<--------------------------------------------------------------------->
"""

<--------------------------------------------------------------------->
<------------------ Equilibrating at temperature 1700 ----------------->
<--------------------------------------------------------------------->

run 250000
Last active /omp style is pair_style eam/alloy/omp
Step Temp Volume Press KinEng PotEng Density
0    1803.6988    21181.941    295880.49    477.25063   -8394.7647    9.4617572
Averages over the last 126 of 251 rows, steps 125000 to 250000:
Temp Volume Press KinEng PotEng Density
1698.77 21061.1 301189 449.486 -8422.55 9.51606
Loop time of 508.509 on 8 procs for 250000 steps with 2048 atoms

# fix 132 all momentum 100 linear 1 1 1 angular

# dump 3 all custom 1000 traj_npt_new.lammpstrj id type x y z
run 50000
Last active /omp style is pair_style eam/alloy/omp
Step Temp Volume Press KinEng PotEng Density
250000     1699.647     21029.05    305778.19    449.71896   -8415.6828    9.5305486
Averages over the last 26 of 51 rows, steps 275000 to 300000:
Temp Volume Press KinEng PotEng Density
1701.01 21064.3 301232 450.081 -8420.92 9.51464
Loop time of 101.201 on 8 procs for 50000 steps with 2048 atoms

unfix temp
unfix out_file_1

write_data after_cooling_press_$P_$T.in
write_data after_cooling_press_300000_$T.in
write_data after_cooling_press_300000_1700.in
System init for write_data ...
Last active /omp style is pair_style eam/alloy/omp
write_restart after_cooling_press_$P_$T.lmp
write_restart after_cooling_press_300000_$T.lmp
write_restart after_cooling_press_300000_1700.lmp
System init for write_restart ...
Last active /omp style is pair_style eam/alloy/omp

next loopVar  #<----->
jump in.lmp ensemble
