LAMMPS (29 Oct 2020)
package omp 0
using multi-threaded neighbor list subroutines
package omp 2
set 2 OpenMP thread(s) per MPI task
using multi-threaded neighbor list subroutines
units metal
dimension 3
boundary p p p

lattice fcc 3.5440
Lattice spacing in x,y,z = 3.5440000 3.5440000 3.5440000
region box block 0 6 0 6 0 14 units lattice
create_box 1 box
Created orthogonal box = (0.0000000 0.0000000 0.0000000) to (21.264000 21.264000 49.616000)
create_atoms 1 box
Created 2016 atoms

# read_restart two_phase_press_0_400_ini.lmp

variable P equal 0
variable dt equal 0.001
# variable loopVar loop 6
variable sys_press equal "press/10000"
variable sim string "heating"
#variable temp_word equal "heating"

group cold_atoms id  <= 1008
1008 atoms in group cold_atoms
group hot_atoms  id  > 1008
1008 atoms in group hot_atoms

# print "step temp vol pe" file heating.txt screen no

pair_style eam/alloy
pair_coeff * * Co_Zhou04.eam.alloy Co
Reading eam/alloy potential file Co_Zhou04.eam.alloy with DATE: 2018-03-30

neighbor 2 bin
neigh_modify every 10 check yes

thermo 1000
thermo_style custom step temp vol press ke pe density

timestep $(dt)
timestep 0.0010000000000000000208

velocity all create 6000 123123

print """
yo aagadi
"""

yo aagadi

label ensemble

print """
Label pachadi solti, hos garam.
"""

Label pachadi solti, hos garam.

variable T equal 6000

reset_timestep 0
fix 1 hot_atoms npt temp $T $T $(dt*100) iso $P $P $(dt*1000)
fix 1 hot_atoms npt temp 6000 $T $(dt*100) iso $P $P $(dt*1000)
fix 1 hot_atoms npt temp 6000 6000 $(dt*100) iso $P $P $(dt*1000)
fix 1 hot_atoms npt temp 6000 6000 0.10000000000000000555 iso $P $P $(dt*1000)
fix 1 hot_atoms npt temp 6000 6000 0.10000000000000000555 iso 0 $P $(dt*1000)
fix 1 hot_atoms npt temp 6000 6000 0.10000000000000000555 iso 0 0 $(dt*1000)
fix 1 hot_atoms npt temp 6000 6000 0.10000000000000000555 iso 0 0 1
print """
<--------------------------------------------------------------------->
<------------------ Equilibrating at temperature $T ----------------->
<--------------------------------------------------------------------->
"""

<--------------------------------------------------------------------->
<------------------ Equilibrating at temperature 6000 ----------------->
<--------------------------------------------------------------------->

run 250000
Last active /omp style is pair_style eam/alloy/omp
  update every 10 steps, delay 10 steps, check yes
Step Temp Volume Press KinEng PotEng Density
0         6000    22434.256    82084.563    1562.7552   -8874.8858        8.794
Averages over the last 126 of 251 rows, steps 125000 to 250000:
Temp Volume Press KinEng PotEng Density
6014.94 27016.4 6.44928 1566.65 -7753.49 7.30269
Loop time of 578.898 on 8 procs for 250000 steps with 2016 atoms

# fix 132 all momentum 100 linear 1 1 1 angular

dump 3 all custom 1000 traj_npt_ini_$P_$T.lammpstrj id type x y z vx vy vz
dump 3 all custom 1000 traj_npt_ini_0_$T.lammpstrj id type x y z vx vy vz
dump 3 all custom 1000 traj_npt_ini_0_6000.lammpstrj id type x y z vx vy vz

# compute myRDF all rdf 50
# fix myrdf all ave/time 300000 1 300000 c_myRDF[*] file rd.rdf mode vector
run 50000
Last active /omp style is pair_style eam/alloy/omp
Step Temp Volume Press KinEng PotEng Density
250000    6133.3925    27192.079   -8288.7088    1597.4985   -7752.6512    7.2553059
Averages over the last 26 of 51 rows, steps 275000 to 300000:
Temp Volume Press KinEng PotEng Density
6060.46 27073.9 -142.36 1578.5 -7744.89 7.28715
Loop time of 116.088 on 8 procs for 50000 steps with 2016 atoms

unfix temp
unfix out_file_1
# unfix myrdf

write_data two_phase_press_$P_$T_ini.in
write_data two_phase_press_0_$T_ini.in
write_data two_phase_press_0_6000_ini.in
System init for write_data ...
Last active /omp style is pair_style eam/alloy/omp
write_restart two_phase_press_$P_$T_ini.lmp
write_restart two_phase_press_0_$T_ini.lmp
write_restart two_phase_press_0_6000_ini.lmp
System init for write_restart ...
Last active /omp style is pair_style eam/alloy/omp
# next loopVar
# jump in.lmp ensemble
