LAMMPS (29 Oct 2020)
package omp 0
using multi-threaded neighbor list subroutines
package omp 2
set 2 OpenMP thread(s) per MPI task
using multi-threaded neighbor list subroutines
units metal
dimension 3
boundary p p p

lattice fcc 3.5440
Lattice spacing in x,y,z = 3.5440000 3.5440000 3.5440000
region box block 0 8 0 8 0 8 units lattice
create_box 1 box
Created orthogonal box = (0.0000000 0.0000000 0.0000000) to (28.352000 28.352000 28.352000)
create_atoms 1 box
Created 2048 atoms

# read_restart after_heating_2400.lmp

variable P equal 0
variable dt equal 0.001
variable loopVar loop 4
variable sys_press equal "press/10000"
# print "step temp vol pe" file heating.txt screen no

pair_style eam/alloy
pair_coeff * * Co_Zhou04.eam.alloy Co
Reading eam/alloy potential file Co_Zhou04.eam.alloy with DATE: 2018-03-30

neighbor 2 bin
neigh_modify every 10 check yes

thermo 1000
thermo_style custom step temp vol press ke pe density

timestep $(dt)
timestep 0.0010000000000000000208

# fix 2 all npt temp 300 300 $(dt*100) iso 0 0 $(dt*1000)
# run 30000
# unfix 2

# dump_modify 1 append yes
# dump 3 all custom 10000 traj_npt_new.lammpstrj id type x y z

velocity all create 2000 123123

print """
asdfasdfasdfasdfsadfasddsaffffffffffff
"""

asdfasdfasdfasdfsadfasddsaffffffffffff

label ensemble

print """
Hi HI Hi
# """

Hi HI Hi
#
variable T equal 1900+1*100
# variable T equal 1200
# velocity all create 1200 123123
reset_timestep 0
fix 1 all npt temp $T $T $(dt*100) iso 0 0 $(dt*1000)
fix 1 all npt temp 2000 $T $(dt*100) iso 0 0 $(dt*1000)
fix 1 all npt temp 2000 2000 $(dt*100) iso 0 0 $(dt*1000)
fix 1 all npt temp 2000 2000 0.10000000000000000555 iso 0 0 $(dt*1000)
fix 1 all npt temp 2000 2000 0.10000000000000000555 iso 0 0 1
print """
<--------------------------------------------------------------------->
<------------------ Equilibrating at temperature $T ----------------->
<--------------------------------------------------------------------->
"""

<--------------------------------------------------------------------->
<------------------ Equilibrating at temperature 2000 ----------------->
<--------------------------------------------------------------------->

run 250000
Last active /omp style is pair_style eam/alloy/omp
  update every 10 steps, delay 10 steps, check yes
Step Temp Volume Press KinEng PotEng Density
0         2000    22790.356    32481.852    529.19103    -9015.757        8.794
Averages over the last 126 of 251 rows, steps 125000 to 250000:
Temp Volume Press KinEng PotEng Density
1998.81 25103.3 88.495 528.876 -8373.91 7.98381
Loop time of 1249.31 on 4 procs for 250000 steps with 2048 atoms

# fix 132 all momentum 100 linear 1 1 1 angular

# dump 3 all custom 1000 traj_npt_new.lammpstrj id type x y z
run 50000
Last active /omp style is pair_style eam/alloy/omp
Step Temp Volume Press KinEng PotEng Density
250000    1987.1891    25166.474   -2353.5196    525.80132   -8363.4734    7.9637056
Averages over the last 26 of 51 rows, steps 275000 to 300000:
Temp Volume Press KinEng PotEng Density
1991.4 25097.6 660.651 526.915 -8371.82 7.98565
Loop time of 244.401 on 4 procs for 50000 steps with 2048 atoms

unfix temp
unfix out_file_1
# unfix 1
# # clear
write_data after_heating_$T.in
write_data after_heating_2000.in
System init for write_data ...
Last active /omp style is pair_style eam/alloy/omp
write_restart after_heating_$T.lmp
write_restart after_heating_2000.lmp
System init for write_restart ...
Last active /omp style is pair_style eam/alloy/omp
next loopVar
# # # thermo_modify flush yes
jump in.lmp ensemble

print """
Hi HI Hi
# """

Hi HI Hi
#
variable T equal 1900+2*100
# variable T equal 1200
# velocity all create 1200 123123
reset_timestep 0
fix 1 all npt temp $T $T $(dt*100) iso 0 0 $(dt*1000)
fix 1 all npt temp 2100 $T $(dt*100) iso 0 0 $(dt*1000)
fix 1 all npt temp 2100 2100 $(dt*100) iso 0 0 $(dt*1000)
fix 1 all npt temp 2100 2100 0.10000000000000000555 iso 0 0 $(dt*1000)
fix 1 all npt temp 2100 2100 0.10000000000000000555 iso 0 0 1
print """
<--------------------------------------------------------------------->
<------------------ Equilibrating at temperature $T ----------------->
<--------------------------------------------------------------------->
"""

<--------------------------------------------------------------------->
<------------------ Equilibrating at temperature 2100 ----------------->
<--------------------------------------------------------------------->

run 250000
Last active /omp style is pair_style eam/alloy/omp
Step Temp Volume Press KinEng PotEng Density
0    2046.1662    25172.601   -1087.0629    541.40641   -8359.4403    7.9617669
Averages over the last 126 of 251 rows, steps 125000 to 250000:
Temp Volume Press KinEng PotEng Density
2099.95 25302.9 49.9048 555.637 -8317.8 7.92086
Loop time of 1230.62 on 4 procs for 250000 steps with 2048 atoms

# fix 132 all momentum 100 linear 1 1 1 angular

# dump 3 all custom 1000 traj_npt_new.lammpstrj id type x y z
run 50000
Last active /omp style is pair_style eam/alloy/omp
Step Temp Volume Press KinEng PotEng Density
250000    2126.1431     25388.41   -1599.5743    562.56793   -8302.8758    7.8940898
Averages over the last 26 of 51 rows, steps 275000 to 300000:
Temp Volume Press KinEng PotEng Density
2087.2 25291.8 542.649 552.264 -8318.35 7.92433
Loop time of 244.841 on 4 procs for 50000 steps with 2048 atoms

unfix temp
unfix out_file_1
# unfix 1
# # clear
write_data after_heating_$T.in
write_data after_heating_2100.in
System init for write_data ...
Last active /omp style is pair_style eam/alloy/omp
write_restart after_heating_$T.lmp
write_restart after_heating_2100.lmp
System init for write_restart ...
Last active /omp style is pair_style eam/alloy/omp
next loopVar
# # # thermo_modify flush yes
jump in.lmp ensemble

print """
Hi HI Hi
# """

Hi HI Hi
#
variable T equal 1900+3*100
# variable T equal 1200
# velocity all create 1200 123123
reset_timestep 0
fix 1 all npt temp $T $T $(dt*100) iso 0 0 $(dt*1000)
fix 1 all npt temp 2200 $T $(dt*100) iso 0 0 $(dt*1000)
fix 1 all npt temp 2200 2200 $(dt*100) iso 0 0 $(dt*1000)
fix 1 all npt temp 2200 2200 0.10000000000000000555 iso 0 0 $(dt*1000)
fix 1 all npt temp 2200 2200 0.10000000000000000555 iso 0 0 1
print """
<--------------------------------------------------------------------->
<------------------ Equilibrating at temperature $T ----------------->
<--------------------------------------------------------------------->
"""

<--------------------------------------------------------------------->
<------------------ Equilibrating at temperature 2200 ----------------->
<--------------------------------------------------------------------->

run 250000
Last active /omp style is pair_style eam/alloy/omp
Step Temp Volume Press KinEng PotEng Density
0    2087.5093    25279.528    -2902.671     552.3456   -8337.6022    7.9280905
Averages over the last 126 of 251 rows, steps 125000 to 250000:
Temp Volume Press KinEng PotEng Density
2196.31 26588.8 185.812 581.134 -7971.18 7.53779
Loop time of 1254.18 on 4 procs for 250000 steps with 2048 atoms

# fix 132 all momentum 100 linear 1 1 1 angular

# dump 3 all custom 1000 traj_npt_new.lammpstrj id type x y z
run 50000
Last active /omp style is pair_style eam/alloy/omp
Step Temp Volume Press KinEng PotEng Density
250000    2184.2638    26582.282    2777.5208     577.9464   -7955.8653    7.5395479
Averages over the last 26 of 51 rows, steps 275000 to 300000:
Temp Volume Press KinEng PotEng Density
2195.55 26558.4 1316.17 580.934 -7974.16 7.54641
Loop time of 239.033 on 4 procs for 50000 steps with 2048 atoms

unfix temp
unfix out_file_1
# unfix 1
# # clear
write_data after_heating_$T.in
write_data after_heating_2200.in
System init for write_data ...
Last active /omp style is pair_style eam/alloy/omp
write_restart after_heating_$T.lmp
write_restart after_heating_2200.lmp
System init for write_restart ...
Last active /omp style is pair_style eam/alloy/omp
next loopVar
# # # thermo_modify flush yes
jump in.lmp ensemble

print """
Hi HI Hi
# """

Hi HI Hi
#
variable T equal 1900+4*100
# variable T equal 1200
# velocity all create 1200 123123
reset_timestep 0
fix 1 all npt temp $T $T $(dt*100) iso 0 0 $(dt*1000)
fix 1 all npt temp 2300 $T $(dt*100) iso 0 0 $(dt*1000)
fix 1 all npt temp 2300 2300 $(dt*100) iso 0 0 $(dt*1000)
fix 1 all npt temp 2300 2300 0.10000000000000000555 iso 0 0 $(dt*1000)
fix 1 all npt temp 2300 2300 0.10000000000000000555 iso 0 0 1
print """
<--------------------------------------------------------------------->
<------------------ Equilibrating at temperature $T ----------------->
<--------------------------------------------------------------------->
"""

<--------------------------------------------------------------------->
<------------------ Equilibrating at temperature 2300 ----------------->
<--------------------------------------------------------------------->

run 250000
Last active /omp style is pair_style eam/alloy/omp
Step Temp Volume Press KinEng PotEng Density
0    2154.4843    26558.659    104.71055    570.06688   -7982.9024     7.546254
Averages over the last 78 of 156 rows, steps 78000 to 155000:
Temp Volume Press KinEng PotEng Density
2302.23 26766.7 137.686 609.16 -7930.93 7.48771
