LAMMPS (29 Oct 2020)
package omp 0
using multi-threaded neighbor list subroutines
package omp 2
set 2 OpenMP thread(s) per MPI task
using multi-threaded neighbor list subroutines
units metal
dimension 3
boundary p p p

lattice fcc 3.5440
Lattice spacing in x,y,z = 3.5440000 3.5440000 3.5440000
region whole_block block 0 7 0 7 0 7 units lattice
region hot_atoms block 0 7 0 7 0 7 units lattice
create_box 1 whole_block
Created orthogonal box = (0.0000000 0.0000000 0.0000000) to (24.808000 24.808000 24.808000)
create_atoms 1 region hot_atoms
Created 1372 atoms
variable P equal 0
variable dt equal 0.001

pair_style eam/alloy
pair_coeff * * Co_Zhou04.eam.alloy Co
Reading eam/alloy potential file Co_Zhou04.eam.alloy with DATE: 2018-03-30

neighbor 2 bin
neigh_modify every 10 check yes

thermo 500
thermo_style custom step temp vol press ke pe density

timestep $(dt)
timestep 0.0010000000000000000208
variable T equal 6000

velocity all create $T 9823447
velocity all create 6000 9823447

# variable T equal 400

# reset_timestep 0
fix 1 all npt temp $T $T $(dt*100) iso $P $P $(dt*1000)
fix 1 all npt temp 6000 $T $(dt*100) iso $P $P $(dt*1000)
fix 1 all npt temp 6000 6000 $(dt*100) iso $P $P $(dt*1000)
fix 1 all npt temp 6000 6000 0.10000000000000000555 iso $P $P $(dt*1000)
fix 1 all npt temp 6000 6000 0.10000000000000000555 iso 0 $P $(dt*1000)
fix 1 all npt temp 6000 6000 0.10000000000000000555 iso 0 0 $(dt*1000)
fix 1 all npt temp 6000 6000 0.10000000000000000555 iso 0 0 1
# fix 1 all nve
# fix 3 all temp/rescale 1000 $T $T 200 1.0

# dump 3 all custom 100 liquid.lammpstrj id type x y z
run 100000
Last active /omp style is pair_style eam/alloy/omp
  update every 10 steps, delay 10 steps, check yes
Step Temp Volume Press KinEng PotEng Density
0         6000    15267.758    82067.231     1063.294   -6039.8528        8.794
Averages over the last 101 of 201 rows, steps 50000 to 100000:
Temp Volume Press KinEng PotEng Density
6017.1 22986.3 -42.5059 1066.32 -4437.32 5.84178
Loop time of 148.991 on 8 procs for 100000 steps with 1372 atoms

write_data liquid_$T.in
write_data liquid_6000.in
System init for write_data ...
Last active /omp style is pair_style eam/alloy/omp
write_restart liquid_$T.lmp
write_restart liquid_6000.lmp
System init for write_restart ...
Last active /omp style is pair_style eam/alloy/omp
