LAMMPS (29 Oct 2020)
package omp 0
using multi-threaded neighbor list subroutines
package omp 2
set 2 OpenMP thread(s) per MPI task
using multi-threaded neighbor list subroutines
units metal
dimension 3
boundary p p p

lattice fcc 3.5440
Lattice spacing in x,y,z = 3.5440000 3.5440000 3.5440000
region box block 0 8 0 8 0 8 units lattice
create_box 1 box
Created orthogonal box = (0.0000000 0.0000000 0.0000000) to (28.352000 28.352000 28.352000)
create_atoms 1 box
Created 2048 atoms

# read_restart after_heating_2400.lmp

variable P equal 0
variable dt equal 0.001
variable loopVar loop 22
variable sys_press equal "press/10000"
# print "step temp vol pe" file heating.txt screen no

pair_style eam/alloy
pair_coeff * * Co_Zhou04.eam.alloy Co
Reading eam/alloy potential file Co_Zhou04.eam.alloy with DATE: 2018-03-30

neighbor 2 bin
neigh_modify every 10 check yes

thermo 1000
thermo_style custom step temp vol press ke pe density

timestep $(dt)
timestep 0.0010000000000000000208

# fix 2 all npt temp 300 300 $(dt*100) iso 0 0 $(dt*1000)
# run 30000
# unfix 2

# dump_modify 1 append yes
# dump 3 all custom 10000 traj_npt_new.lammpstrj id type x y z

# velocity all create 300 123123

# print """
# asdfasdfasdfasdfsadfasddsaffffffffffff
# """
# label ensemble

# print """
# Hi HI Hi
# """
variable T equal 1200
velocity all create 1200 123123
reset_timestep 0
fix 1 all npt temp $T $T $(dt*100) iso 0 0 $(dt*1000)
fix 1 all npt temp 1200 $T $(dt*100) iso 0 0 $(dt*1000)
fix 1 all npt temp 1200 1200 $(dt*100) iso 0 0 $(dt*1000)
fix 1 all npt temp 1200 1200 0.10000000000000000555 iso 0 0 $(dt*1000)
fix 1 all npt temp 1200 1200 0.10000000000000000555 iso 0 0 1
print """
<--------------------------------------------------------------------->
<------------------ Equilibrating at temperature $T ----------------->
<--------------------------------------------------------------------->
"""

<--------------------------------------------------------------------->
<------------------ Equilibrating at temperature 1200 ----------------->
<--------------------------------------------------------------------->

run 150000
Last active /omp style is pair_style eam/alloy/omp
  update every 10 steps, delay 10 steps, check yes
Step Temp Volume Press KinEng PotEng Density
0         1200    22790.356    22561.194    317.51462    -9015.757        8.794
Averages over the last 76 of 151 rows, steps 75000 to 150000:
Temp Volume Press KinEng PotEng Density
1200.21 24055.4 1018.41 317.569 -8670.77 8.33159
Loop time of 698.064 on 4 procs for 150000 steps with 2048 atoms

# fix 132 all momentum 100 linear 1 1 1 angular

# dump 3 all custom 1000 traj_npt_new.lammpstrj id type x y z
run 50000
Last active /omp style is pair_style eam/alloy/omp
Step Temp Volume Press KinEng PotEng Density
150000    1189.2588    24094.382    35.431714    314.67256   -8661.7223    8.3180546
Averages over the last 26 of 51 rows, steps 175000 to 200000:
Temp Volume Press KinEng PotEng Density
1197.81 24118.9 -3312.9 316.935 -8670.17 8.30963
Loop time of 228.284 on 4 procs for 50000 steps with 2048 atoms

# unfix temp
# unfix out_file_1
# unfix 1
# # clear
# write_data after_cooling_$T.in
# write_restart after_cooling_$T.lmp
# next loopVar
# # # thermo_modify flush yes
# jump in.lmp ensemble

# write_data after_cooling_$T_.in
# write_restart after_cooling_$T.lmp
