LAMMPS (29 Oct 2020)
package omp 0
using multi-threaded neighbor list subroutines
package omp 2
set 2 OpenMP thread(s) per MPI task
using multi-threaded neighbor list subroutines
# units metal
# dimension 3
# boundary p p p

# lattice fcc 3.5440
# region box block 0 8 0 8 0 8 units lattice
# create_box 1 box
# create_atoms 1 box

read_restart after_heating_press_50000_2600.lmp
Reading restart file ...
  restart file = 29 Oct 2020, LAMMPS = 29 Oct 2020
  restoring atom style atomic from restart
  orthogonal box = (-0.62950224 -0.62950224 -0.62950224) to (28.981502 28.981502 28.981502)
  pair style eam/alloy/omp stores no restart info
  2048 atoms
  read_restart CPU = 0.001 seconds

variable P equal 50000
variable dt equal 0.001
variable loopVar loop 6
variable sys_press equal "press/10000"
variable sim string "cooling"
#variable temp_word equal "heating"

# print "step temp vol pe" file heating.txt screen no

pair_style eam/alloy
pair_coeff * * Co_Zhou04.eam.alloy Co
Reading eam/alloy potential file Co_Zhou04.eam.alloy with DATE: 2018-03-30

neighbor 2 bin
neigh_modify every 10 check yes

thermo 1000
thermo_style custom step temp vol press ke pe density

timestep $(dt)
timestep 0.0010000000000000000208

# fix 2 all npt temp 300 300 $(dt*100) iso 0 0 $(dt*1000)
# run 30000
# unfix 2

# dump_modify 1 append yes
# dump 3 all custom 10000 traj_npt_new.lammpstrj id type x y z

# velocity all create 1900 123123

print """
yo aagadi
"""

yo aagadi

label ensemble

print """
Label pachadi solti, hos garam.
"""

Label pachadi solti, hos garam.

variable T equal 1700-1*100
#variable T equal 1250
# velocity all create 1200 123123
reset_timestep 0
fix 1 all npt temp $T $T $(dt*100) iso $P $P $(dt*1000)
fix 1 all npt temp 1600 $T $(dt*100) iso $P $P $(dt*1000)
fix 1 all npt temp 1600 1600 $(dt*100) iso $P $P $(dt*1000)
fix 1 all npt temp 1600 1600 0.10000000000000000555 iso $P $P $(dt*1000)
fix 1 all npt temp 1600 1600 0.10000000000000000555 iso 50000 $P $(dt*1000)
fix 1 all npt temp 1600 1600 0.10000000000000000555 iso 50000 50000 $(dt*1000)
fix 1 all npt temp 1600 1600 0.10000000000000000555 iso 50000 50000 1
  fix style: npt/omp, fix ID: 1
print """
<--------------------------------------------------------------------->
<------------------ Equilibrating at temperature $T ----------------->
<--------------------------------------------------------------------->
"""

<--------------------------------------------------------------------->
<------------------ Equilibrating at temperature 1600 ----------------->
<--------------------------------------------------------------------->

run 250000
All restart file global fix info was re-assigned
Last active /omp style is pair_style eam/alloy/omp
  update every 10 steps, delay 10 steps, check yes
Step Temp Volume Press KinEng PotEng Density
0     2637.743    25963.272    48829.077    697.93498   -7930.8373    7.7193039
Averages over the last 126 of 251 rows, steps 125000 to 250000:
Temp Volume Press KinEng PotEng Density
1598.27 24506.3 49826.9 422.896 -8294.22 8.17828
Loop time of 550.549 on 8 procs for 250000 steps with 2048 atoms

# fix 132 all momentum 100 linear 1 1 1 angular

# dump 3 all custom 1000 traj_npt_new.lammpstrj id type x y z
run 50000
Last active /omp style is pair_style eam/alloy/omp
Step Temp Volume Press KinEng PotEng Density
250000    1617.8216    24543.546    48105.885    428.06834   -8289.3382    8.1658286
Averages over the last 26 of 51 rows, steps 275000 to 300000:
Temp Volume Press KinEng PotEng Density
1600.02 24493.6 50194.6 423.359 -8296.81 8.18255
Loop time of 115.685 on 8 procs for 50000 steps with 2048 atoms

unfix temp
unfix out_file_1

write_data after_cooling_press_$P_$T.in
write_data after_cooling_press_50000_$T.in
write_data after_cooling_press_50000_1600.in
System init for write_data ...
Last active /omp style is pair_style eam/alloy/omp
write_restart after_cooling_press_$P_$T.lmp
write_restart after_cooling_press_50000_$T.lmp
write_restart after_cooling_press_50000_1600.lmp
System init for write_restart ...
Last active /omp style is pair_style eam/alloy/omp
next loopVar
jump in.lmp ensemble

print """
Label pachadi solti, hos garam.
"""

Label pachadi solti, hos garam.

variable T equal 1700-2*100
#variable T equal 1250
# velocity all create 1200 123123
reset_timestep 0
fix 1 all npt temp $T $T $(dt*100) iso $P $P $(dt*1000)
fix 1 all npt temp 1500 $T $(dt*100) iso $P $P $(dt*1000)
fix 1 all npt temp 1500 1500 $(dt*100) iso $P $P $(dt*1000)
fix 1 all npt temp 1500 1500 0.10000000000000000555 iso $P $P $(dt*1000)
fix 1 all npt temp 1500 1500 0.10000000000000000555 iso 50000 $P $(dt*1000)
fix 1 all npt temp 1500 1500 0.10000000000000000555 iso 50000 50000 $(dt*1000)
fix 1 all npt temp 1500 1500 0.10000000000000000555 iso 50000 50000 1
print """
<--------------------------------------------------------------------->
<------------------ Equilibrating at temperature $T ----------------->
<--------------------------------------------------------------------->
"""

<--------------------------------------------------------------------->
<------------------ Equilibrating at temperature 1500 ----------------->
<--------------------------------------------------------------------->

run 250000
Last active /omp style is pair_style eam/alloy/omp
Step Temp Volume Press KinEng PotEng Density
0    1601.9521     24530.38    48022.763    423.86935   -8298.5753    8.1702112
Averages over the last 126 of 251 rows, steps 125000 to 250000:
Temp Volume Press KinEng PotEng Density
1500.9 24348.6 50368.8 397.131 -8335.36 8.23125
Loop time of 564.435 on 8 procs for 250000 steps with 2048 atoms

# fix 132 all momentum 100 linear 1 1 1 angular

# dump 3 all custom 1000 traj_npt_new.lammpstrj id type x y z
run 50000
Last active /omp style is pair_style eam/alloy/omp
Step Temp Volume Press KinEng PotEng Density
250000    1467.9719    24342.297     50478.91    388.41879   -8334.7397    8.2333391
Averages over the last 26 of 51 rows, steps 275000 to 300000:
Temp Volume Press KinEng PotEng Density
1498.09 24338.8 50831.7 396.388 -8335.65 8.23458
Loop time of 99.3078 on 8 procs for 50000 steps with 2048 atoms

unfix temp
unfix out_file_1

write_data after_cooling_press_$P_$T.in
write_data after_cooling_press_50000_$T.in
write_data after_cooling_press_50000_1500.in
System init for write_data ...
Last active /omp style is pair_style eam/alloy/omp
write_restart after_cooling_press_$P_$T.lmp
write_restart after_cooling_press_50000_$T.lmp
write_restart after_cooling_press_50000_1500.lmp
System init for write_restart ...
Last active /omp style is pair_style eam/alloy/omp
next loopVar
jump in.lmp ensemble

print """
Label pachadi solti, hos garam.
"""

Label pachadi solti, hos garam.

variable T equal 1700-3*100
#variable T equal 1250
# velocity all create 1200 123123
reset_timestep 0
fix 1 all npt temp $T $T $(dt*100) iso $P $P $(dt*1000)
fix 1 all npt temp 1400 $T $(dt*100) iso $P $P $(dt*1000)
fix 1 all npt temp 1400 1400 $(dt*100) iso $P $P $(dt*1000)
fix 1 all npt temp 1400 1400 0.10000000000000000555 iso $P $P $(dt*1000)
fix 1 all npt temp 1400 1400 0.10000000000000000555 iso 50000 $P $(dt*1000)
fix 1 all npt temp 1400 1400 0.10000000000000000555 iso 50000 50000 $(dt*1000)
fix 1 all npt temp 1400 1400 0.10000000000000000555 iso 50000 50000 1
print """
<--------------------------------------------------------------------->
<------------------ Equilibrating at temperature $T ----------------->
<--------------------------------------------------------------------->
"""

<--------------------------------------------------------------------->
<------------------ Equilibrating at temperature 1400 ----------------->
<--------------------------------------------------------------------->

run 250000
Last active /omp style is pair_style eam/alloy/omp
Step Temp Volume Press KinEng PotEng Density
0    1487.5253    24276.384    52184.701    393.59251   -8350.3419    8.2556936
Averages over the last 126 of 251 rows, steps 125000 to 250000:
Temp Volume Press KinEng PotEng Density
1403.12 24214.6 49398.4 371.258 -8376.45 8.27679
Loop time of 473.354 on 8 procs for 250000 steps with 2048 atoms

# fix 132 all momentum 100 linear 1 1 1 angular

# dump 3 all custom 1000 traj_npt_new.lammpstrj id type x y z
run 50000
Last active /omp style is pair_style eam/alloy/omp
Step Temp Volume Press KinEng PotEng Density
250000     1409.242    24244.575    47530.502    372.87911   -8377.0679     8.266525
Averages over the last 26 of 51 rows, steps 275000 to 300000:
Temp Volume Press KinEng PotEng Density
1394.46 24181.3 51125 368.967 -8378.16 8.2882
Loop time of 94.9268 on 8 procs for 50000 steps with 2048 atoms

unfix temp
unfix out_file_1

write_data after_cooling_press_$P_$T.in
write_data after_cooling_press_50000_$T.in
write_data after_cooling_press_50000_1400.in
System init for write_data ...
Last active /omp style is pair_style eam/alloy/omp
write_restart after_cooling_press_$P_$T.lmp
write_restart after_cooling_press_50000_$T.lmp
write_restart after_cooling_press_50000_1400.lmp
System init for write_restart ...
Last active /omp style is pair_style eam/alloy/omp
next loopVar
jump in.lmp ensemble

print """
Label pachadi solti, hos garam.
"""

Label pachadi solti, hos garam.

variable T equal 1700-4*100
#variable T equal 1250
# velocity all create 1200 123123
reset_timestep 0
fix 1 all npt temp $T $T $(dt*100) iso $P $P $(dt*1000)
fix 1 all npt temp 1300 $T $(dt*100) iso $P $P $(dt*1000)
fix 1 all npt temp 1300 1300 $(dt*100) iso $P $P $(dt*1000)
fix 1 all npt temp 1300 1300 0.10000000000000000555 iso $P $P $(dt*1000)
fix 1 all npt temp 1300 1300 0.10000000000000000555 iso 50000 $P $(dt*1000)
fix 1 all npt temp 1300 1300 0.10000000000000000555 iso 50000 50000 $(dt*1000)
fix 1 all npt temp 1300 1300 0.10000000000000000555 iso 50000 50000 1
print """
<--------------------------------------------------------------------->
<------------------ Equilibrating at temperature $T ----------------->
<--------------------------------------------------------------------->
"""

<--------------------------------------------------------------------->
<------------------ Equilibrating at temperature 1300 ----------------->
<--------------------------------------------------------------------->

run 250000
Last active /omp style is pair_style eam/alloy/omp
Step Temp Volume Press KinEng PotEng Density
0    1409.1272    24073.022    56780.822    372.84875   -8386.3643    8.3254351
Averages over the last 126 of 251 rows, steps 125000 to 250000:
Temp Volume Press KinEng PotEng Density
1298.78 23400.4 50812.2 343.652 -8609.55 8.5648
Loop time of 472.54 on 8 procs for 250000 steps with 2048 atoms

# fix 132 all momentum 100 linear 1 1 1 angular

# dump 3 all custom 1000 traj_npt_new.lammpstrj id type x y z
run 50000
Last active /omp style is pair_style eam/alloy/omp
Step Temp Volume Press KinEng PotEng Density
250000    1264.0676    23374.973    51653.135    334.46662   -8610.2655    8.5740585
Averages over the last 26 of 51 rows, steps 275000 to 300000:
Temp Volume Press KinEng PotEng Density
1294.53 23430.2 47526.8 342.526 -8612.18 8.55389
Loop time of 93.3406 on 8 procs for 50000 steps with 2048 atoms

unfix temp
unfix out_file_1

write_data after_cooling_press_$P_$T.in
write_data after_cooling_press_50000_$T.in
write_data after_cooling_press_50000_1300.in
System init for write_data ...
Last active /omp style is pair_style eam/alloy/omp
write_restart after_cooling_press_$P_$T.lmp
write_restart after_cooling_press_50000_$T.lmp
write_restart after_cooling_press_50000_1300.lmp
System init for write_restart ...
Last active /omp style is pair_style eam/alloy/omp
next loopVar
jump in.lmp ensemble

print """
Label pachadi solti, hos garam.
"""

Label pachadi solti, hos garam.

variable T equal 1700-5*100
#variable T equal 1250
# velocity all create 1200 123123
reset_timestep 0
fix 1 all npt temp $T $T $(dt*100) iso $P $P $(dt*1000)
fix 1 all npt temp 1200 $T $(dt*100) iso $P $P $(dt*1000)
fix 1 all npt temp 1200 1200 $(dt*100) iso $P $P $(dt*1000)
fix 1 all npt temp 1200 1200 0.10000000000000000555 iso $P $P $(dt*1000)
fix 1 all npt temp 1200 1200 0.10000000000000000555 iso 50000 $P $(dt*1000)
fix 1 all npt temp 1200 1200 0.10000000000000000555 iso 50000 50000 $(dt*1000)
fix 1 all npt temp 1200 1200 0.10000000000000000555 iso 50000 50000 1
print """
<--------------------------------------------------------------------->
<------------------ Equilibrating at temperature $T ----------------->
<--------------------------------------------------------------------->
"""

<--------------------------------------------------------------------->
<------------------ Equilibrating at temperature 1200 ----------------->
<--------------------------------------------------------------------->

run 250000
Last active /omp style is pair_style eam/alloy/omp
Step Temp Volume Press KinEng PotEng Density
0    1302.6257    23359.678    50584.076    344.66892   -8622.2752    8.5796724
Averages over the last 126 of 251 rows, steps 125000 to 250000:
Temp Volume Press KinEng PotEng Density
1200.66 23296.7 49779.8 317.689 -8642.05 8.6029
Loop time of 470.452 on 8 procs for 250000 steps with 2048 atoms

# fix 132 all momentum 100 linear 1 1 1 angular

# dump 3 all custom 1000 traj_npt_new.lammpstrj id type x y z
run 50000
Last active /omp style is pair_style eam/alloy/omp
Step Temp Volume Press KinEng PotEng Density
250000    1213.6918    23191.993    54530.918    321.13741   -8654.1371    8.6417062
Averages over the last 26 of 51 rows, steps 275000 to 300000:
Temp Volume Press KinEng PotEng Density
1196.55 23292.4 50354.2 316.601 -8640.41 8.60451
Loop time of 98.0925 on 8 procs for 50000 steps with 2048 atoms

unfix temp
unfix out_file_1

write_data after_cooling_press_$P_$T.in
write_data after_cooling_press_50000_$T.in
write_data after_cooling_press_50000_1200.in
System init for write_data ...
Last active /omp style is pair_style eam/alloy/omp
write_restart after_cooling_press_$P_$T.lmp
write_restart after_cooling_press_50000_$T.lmp
write_restart after_cooling_press_50000_1200.lmp
System init for write_restart ...
Last active /omp style is pair_style eam/alloy/omp
next loopVar
jump in.lmp ensemble

print """
Label pachadi solti, hos garam.
"""

Label pachadi solti, hos garam.

variable T equal 1700-6*100
#variable T equal 1250
# velocity all create 1200 123123
reset_timestep 0
fix 1 all npt temp $T $T $(dt*100) iso $P $P $(dt*1000)
fix 1 all npt temp 1100 $T $(dt*100) iso $P $P $(dt*1000)
fix 1 all npt temp 1100 1100 $(dt*100) iso $P $P $(dt*1000)
fix 1 all npt temp 1100 1100 0.10000000000000000555 iso $P $P $(dt*1000)
fix 1 all npt temp 1100 1100 0.10000000000000000555 iso 50000 $P $(dt*1000)
fix 1 all npt temp 1100 1100 0.10000000000000000555 iso 50000 50000 $(dt*1000)
fix 1 all npt temp 1100 1100 0.10000000000000000555 iso 50000 50000 1
print """
<--------------------------------------------------------------------->
<------------------ Equilibrating at temperature $T ----------------->
<--------------------------------------------------------------------->
"""

<--------------------------------------------------------------------->
<------------------ Equilibrating at temperature 1100 ----------------->
<--------------------------------------------------------------------->

run 250000
Last active /omp style is pair_style eam/alloy/omp
Step Temp Volume Press KinEng PotEng Density
0    1237.8064    23297.952    51312.144    327.51803    -8636.392    8.6024035
Averages over the last 126 of 251 rows, steps 125000 to 250000:
Temp Volume Press KinEng PotEng Density
1099.51 23198.5 50003.9 290.927 -8669.94 8.63932
Loop time of 465.515 on 8 procs for 250000 steps with 2048 atoms

# fix 132 all momentum 100 linear 1 1 1 angular

# dump 3 all custom 1000 traj_npt_new.lammpstrj id type x y z
run 50000
Last active /omp style is pair_style eam/alloy/omp
Step Temp Volume Press KinEng PotEng Density
250000    1080.9623    23245.639     46735.79    286.01778   -8668.1767    8.6217627
Averages over the last 26 of 51 rows, steps 275000 to 300000:
Temp Volume Press KinEng PotEng Density
1099.15 23192.2 50249.8 290.83 -8670.28 8.64167
Loop time of 93.8238 on 8 procs for 50000 steps with 2048 atoms

unfix temp
unfix out_file_1

write_data after_cooling_press_$P_$T.in
write_data after_cooling_press_50000_$T.in
write_data after_cooling_press_50000_1100.in
System init for write_data ...
Last active /omp style is pair_style eam/alloy/omp
write_restart after_cooling_press_$P_$T.lmp
write_restart after_cooling_press_50000_$T.lmp
write_restart after_cooling_press_50000_1100.lmp
System init for write_restart ...
Last active /omp style is pair_style eam/alloy/omp
next loopVar
jump in.lmp ensemble
