LAMMPS (19 Mar 2020)
package omp 0
using multi-threaded neighbor list subroutines
package omp 4
set 4 OpenMP thread(s) per MPI task
using multi-threaded neighbor list subroutines

read_restart after_two_phase_equil.lmp
  restoring atom style atomic from restart
  orthogonal box = (-0.261957 -0.261957 -0.523915) to (17.5894 17.5894 35.1787)
  pair style eam/alloy/omp stores no restart info
  864 atoms
  read_restart CPU = 0.0010999 secs

reset_timestep 0
# region left_hot block INF INF INF INF INF 3 units lattice
# region right_hot block INF INF INF INF 9 INF units lattice
# region middle_cold block INF INF INF INF 3 9 units lattice

# #  2 6 units lattice
# region hot union 2 left_hot right_hot
# group hot_atoms region hot
# group cold_atoms region middle_cold

variable dt equal 0.001

pair_style eam/alloy
pair_coeff * * Mishin-Ni-Al-2009.eam.alloy Ni Al

# velocity all create 300 546445435 mom yes rot yes dist gaussian
min_style cg
minimize 1e-25 1e-25 100000 500000
Unused restart file global fix info:
  fix style: npt/omp, fix ID: 1
Last active /omp style is pair_style eam/alloy/omp
  update every 1 steps, delay 0 steps, check yes
Step Temp E_pair E_mol TotEng Press
0    2340.9726   -3433.6163            0   -3172.4773    461.90202
Loop time of 4.39641 on 8 procs for 525 steps with 864 atoms

Minimization stats:
  Stopping criterion = energy tolerance
  Energy initial, next-to-last, final =
  Force two-norm initial, final = 62.756 1.92127e-06
  Force max component initial, final = 8.51079 2.13811e-07
  Final line search alpha, max atom move = 1 2.13811e-07
  Iterations, force evaluations = 525 944

variable T equal 1400

# run 0
# neighbor 2 bin

# neigh_modify every 10 check yes
reset_timestep 0
fix 1 all npt temp $T $T $(dt*100) iso 0 0 $(dt*1000) drag 1.0
fix 1 all npt temp 1400 $T $(dt*100) iso 0 0 $(dt*1000) drag 1.0
fix 1 all npt temp 1400 1400 $(dt*100) iso 0 0 $(dt*1000) drag 1.0
fix 1 all npt temp 1400 1400 0.10000000000000000555 iso 0 0 $(dt*1000) drag 1.0
fix 1 all npt temp 1400 1400 0.10000000000000000555 iso 0 0 1 drag 1.0

thermo 1000
thermo_style custom step temp vol press ke pe density

fix temp all print 100 "$(step) $(temp) $(press) $(vol) $(ke) $(pe) $(density)" file temp.txt screen no title  "step temp press vol ke pe density"

fix out_file_1 all print 1000 "$(step) $(temp) $(press) $(vol) $(ke) $(pe) $(density)" file cooling_$T.txt screen no title  "step temp press vol ke pe density"
fix out_file_1 all print 1000 "$(step) $(temp) $(press) $(vol) $(ke) $(pe) $(density)" file cooling_1400.txt screen no title  "step temp press vol ke pe density"
dump 3 all custom 1000 output.lammpstrj id type x y z

run 500000
Last active /omp style is pair_style eam/alloy/omp
Step Temp Volume Press KinEng PotEng Density
0    2340.9726     11377.36   -79388.611    261.13902   -3737.8576    5.4029578
Averages over the last 251 of 501 rows, steps 250000 to 500000:
Temp Volume Press KinEng PotEng Density
1400.12 10659.7 17.528 156.186 -3648.91 5.76671
Loop time of 2072.8 on 8 procs for 500000 steps with 864 atoms

compute z_chunk all chunk/atom bin/1d z lower 0.7 units box
fix 14 all ave/chunk 500000 1 500000 z_chunk density/number file num_density_$T.txt
fix 14 all ave/chunk 500000 1 500000 z_chunk density/number file num_density_1400.txt

run 0
Last active /omp style is pair_style eam/alloy/omp
Step Temp Volume Press KinEng PotEng Density
500000    1414.2276    10627.236     2658.442    157.75922   -3652.7625    5.7843262
Loop time of 1.65001e-06 on 8 procs for 0 steps with 864 atoms

write_data after_cooling_$T.in
write_data after_cooling_1400.in
Last active /omp style is pair_style eam/alloy/omp
write_restart after_cooling_$T.lmp
write_restart after_cooling_1400.lmp
Last active /omp style is pair_style eam/alloy/omp
# dump 3 all custom 1000 traj_npt_new.lammpstrj id type x y z
# # dump_modify 3 element Ni Al

# run 500000

# write_data after_two_phase_equil.in
# write_restart after_two_phase_equil.lmp

# write_data temp.data
# create_box 1 box
# create_atoms 2 box args mol values

# # read_restart after_heating.lmp

# variable x equal

# variable P equal 0
# variable dt equal 0.001
# # variable loopVar loop 8

# region left_hot block 0 3 0 3 0 2 units lattic
# region cold block
# # print "step temp vol pe" file heating.txt screen no

# pair_style eam/alloy
# pair_coeff * * Mishin-Ni-Al-2009.eam.alloy Ni Al

# # velocity all create 300 123123

# # fix 2 all nve
# # run 1000
# # unfix 2

# neighbor 2 bin
# neigh_modify every 10 check yes

# timestep $(dt)

# # dump_modify 1 append yes
# dump 3 all custom 10000 traj_npt_new.lammpstrj id type x y z

# thermo 1000
# thermo_style custom step temp vol press ke pe density

# label ensemble
# reset_timestep 0

# fix 1 all npt temp $T $T $(dt*100) iso 0 0 $(dt*1000)
# print """
# <--------------------------------------------------------------------->
# <------------------ Equilibrating at temperature $T ----------------->
# <--------------------------------------------------------------------->
# """
# fix temp all print 100 "$(step) $(temp) $(press) $(vol) $(ke) $(pe) $(density)" file temp.txt screen no title  "step temp press vol ke pe density"
# run 250000
# fix out_file_1 all print 1000 "$(step) $(temp) $(press) $(vol) $(ke) $(pe) $(density)" file heating_$T.txt screen no title  "step temp press vol ke pe density"

# run 100000
# unfix out_file_1
# unfix 1
# # # clear
# # next loopVar
# # # thermo_modify flush yes
# # jump in.lmp ensemble
