units real
boundary p p p
atom_style full
pair_style  lj/cut 13.0

bond_style      harmonic
angle_style     harmonic
dihedral_style opls

read_data in.data
Reading data file ...
  orthogonal box = (-0.037475 0.202136 14.043014) to (27.017125 59.842036 151.28211)
  reading atoms ...
  4992 atoms
  reading velocities ...
  4992 velocities
  scanning bonds ...
  scanning angles ...
  scanning dihedrals ...
  reading bonds ...
  5060 bonds
  reading angles ...
  6208 angles
  reading dihedrals ...
  8880 dihedrals
Finding 1-2 1-3 1-4 neighbors ...
     3 = max # of 1-2 neighbors
     6 = max # of 1-3 neighbors
    18 = max # of 1-4 neighbors
    18 = max # of special neighbors
include ../Trial_01/oil_graphene.ff
#Pair Coeffs # lj/cut/omp

pair_coeff 1 1 0.0 0.0 #C-C
pair_coeff 1 2 0.111 3.728 #C-CH3
pair_coeff 1 3 0.091 3.728 #C-CH2
pair_coeff 2 2 0.175 3.905 #CH3-CH3
pair_coeff 2 3 0.144 3.905 #CH3-CH2
pair_coeff 3 3 0.118 3.905 #CH2-CH2

#Bond Coeffs # harmonic/omp

bond_coeff 1 0.0 1.400
bond_coeff 2 260.0 1.526

#Angle Coeffs # harmonic/omp

angle_coeff 1 0.0 120.0
angle_coeff 2 63.0 112.0
angle_coeff 3 63.0 112.0

#Dihedral Coeffs # opls/omp

dihedral_coeff 1 0.0 0.0 0.0 0.0
dihedral_coeff 2 1.411 -0.271 3.145 0
dihedral_coeff 3 1.411 -0.271 3.145 0

variable  dt equal 1
variable Temp equal 340.0
variable Press equal 200.0
group oil type 2:3
3760 atoms in group oil
group graphene type 1
1232 atoms in group graphene
group  upper_graphene id 617:1232
616 atoms in group upper_graphene
group lower_graphene id 1:616
616 atoms in group lower_graphene
group dilate_group union oil upper_graphene
4376 atoms in group dilate_group
velocity oil create 340 53244 dist gaussian mom yes rot yes
# delete_atoms group graphene bond yes mol yes
# write_data afterdel.data

neighbor 2 bin
neigh_modify  delay 0 every 10 check yes

timestep 1

fix setfhi upper_graphene setforce 0.0 0.0 NULL
variable Sz equal lx*ly
fix avefhi upper_graphene aveforce NULL  NULL -0.00382
fix setflo lower_graphene setforce 0.0 0.0 0.0

variable shi equal -f_setfhi[1]/1613.53363854
variable phi equal f_avefhi[3]/1613.53363854
variable slo equal f_setflo[1]/1613.53363854
variable plo equal -f_setflo[3]/1613.53363854

compute oil_temp oil temp
variable oilTemp equal c_oil_temp

compute      oil_press all pressure oil_temp
variable oilPress equal c_oil_press

thermo          1000
thermo_style    custom step temp c_oil_temp press  c_oil_press pe etotal   lx ly v_shi v_phi v_slo v_plo
# thermo_modify   norm no

fix     npt_1 all nvt temp 340 340 $(dt*100)
fix     npt_1 all nvt temp 340 340 100
# fix_modify   npt_1 temp oil_temp  press oil_press

dump 2 all custom 2000 npt_octane_ua_graphene.lammpstrj id mol type x y z
# dump_modify 2 sort id

run 3000000
Last active /omp style is dihedral_style opls/omp
  update every 10 steps, delay 0 steps, check yes
Step Temp c_oil_temp Press c_oil_press PotEng TotEng Lx Ly v_shi v_phi v_slo v_plo
0    256.07293          340   -479.14738   -479.14738     872.5157    4682.1698      27.0546      59.6399 -0.00049150923 -0.0087456894 -0.00032859538 -0.005439305
Averages over the last 1501 of 3001 rows, steps 1500000 to 3000000:
Temp c_oil_temp Press c_oil_press PotEng TotEng Lx Ly v_shi v_phi v_slo v_plo
340.066 451.479 9.3719 9.27309 222.437 5281.68 27.0546 59.6399 -2.24547e-05 0.00187257 -7.19479e-06 0.00081757
Loop time of 6171.02 on 16 procs for 3000000 steps with 4992 atoms

write_restart in_oil_restart_*.in
System init for write_restart ...
Last active /omp style is dihedral_style opls/omp
write_data in_oil_*.in
System init for write_data ...
Last active /omp style is dihedral_style opls/omp

# run 1000000
# write_restart in_oil_restart_*.in
# write_data in_oil_*.in
