LAMMPS (29 Oct 2020)
package omp 0
using multi-threaded neighbor list subroutines
package omp 2
set 2 OpenMP thread(s) per MPI task
using multi-threaded neighbor list subroutines
# units metal  #<----->
# dimension 3
# boundary p p p

# lattice fcc 3.5440
# region box block 0 8 0 8 0 8 units lattice
# create_box 1 box
# create_atoms 1 box

read_restart after_heating_press_800000_5000.lmp  #<----->
Reading restart file ...
  restart file = 29 Oct 2020, LAMMPS = 29 Oct 2020
  restoring atom style atomic from restart
  orthogonal box = (0.65435672 0.65435672 0.65435672) to (27.697643 27.697643 27.697643)
  pair style eam/alloy/omp stores no restart info
  2048 atoms
  read_restart CPU = 0.002 seconds
# read_restart after_cooling_press_500000_2300.lmp

variable P equal 800000     #<----->
variable dt equal 0.001
variable loopVar loop 6
variable sys_press equal "press/10000"

# variable sim string "heating"  #<----->
variable sim string "cooling"

pair_style eam/alloy
pair_coeff * * Co_Zhou04.eam.alloy Co
Reading eam/alloy potential file Co_Zhou04.eam.alloy with DATE: 2018-03-30

neighbor 2 bin
neigh_modify every 10 check yes

thermo 1000
thermo_style custom step temp vol press ke pe density

timestep $(dt)
timestep 0.0010000000000000000208

# velocity all create 4400 123123 #<----->

print """
yo aagadi
"""

yo aagadi

label ensemble

print """
Label pachadi solti, hos garam.
"""

Label pachadi solti, hos garam.

variable T equal 3300-1*100
# variable T equal 4550

reset_timestep 0
fix 1 all npt temp $T $T $(dt*100) iso $P $P $(dt*1000)
fix 1 all npt temp 3200 $T $(dt*100) iso $P $P $(dt*1000)
fix 1 all npt temp 3200 3200 $(dt*100) iso $P $P $(dt*1000)
fix 1 all npt temp 3200 3200 0.10000000000000000555 iso $P $P $(dt*1000)
fix 1 all npt temp 3200 3200 0.10000000000000000555 iso 800000 $P $(dt*1000)
fix 1 all npt temp 3200 3200 0.10000000000000000555 iso 800000 800000 $(dt*1000)
fix 1 all npt temp 3200 3200 0.10000000000000000555 iso 800000 800000 1
  fix style: npt/omp, fix ID: 1
print """
<--------------------------------------------------------------------->
<------------------ Equilibrating at temperature $T ----------------->
<--------------------------------------------------------------------->
"""

<--------------------------------------------------------------------->
<------------------ Equilibrating at temperature 3200 ----------------->
<--------------------------------------------------------------------->

run 250000
All restart file global fix info was re-assigned
Last active /omp style is pair_style eam/alloy/omp
  update every 10 steps, delay 10 steps, check yes
Step Temp Volume Press KinEng PotEng Density
0    4976.0576     19777.82    809306.62    1316.6425   -6834.6406    10.133493
Averages over the last 126 of 251 rows, steps 125000 to 250000:
Temp Volume Press KinEng PotEng Density
3208.57 19149.2 799680 848.974 -7214.86 10.4662
Loop time of 553.627 on 8 procs for 250000 steps with 2048 atoms

# fix 132 all momentum 100 linear 1 1 1 angular

# dump 3 all custom 1000 traj_npt_new.lammpstrj id type x y z
run 50000
Last active /omp style is pair_style eam/alloy/omp
Step Temp Volume Press KinEng PotEng Density
250000    3225.3305    19133.292    805542.32      853.408   -7196.6999    10.474851
Averages over the last 26 of 51 rows, steps 275000 to 300000:
Temp Volume Press KinEng PotEng Density
3202.86 19150.1 800338 847.463 -7211.23 10.4657
Loop time of 115.748 on 8 procs for 50000 steps with 2048 atoms

unfix temp
unfix out_file_1

write_data after_cooling_press_$P_$T.in
write_data after_cooling_press_800000_$T.in
write_data after_cooling_press_800000_3200.in
System init for write_data ...
Last active /omp style is pair_style eam/alloy/omp
write_restart after_cooling_press_$P_$T.lmp
write_restart after_cooling_press_800000_$T.lmp
write_restart after_cooling_press_800000_3200.lmp
System init for write_restart ...
Last active /omp style is pair_style eam/alloy/omp

next loopVar  #<----->
jump in.lmp ensemble

print """
Label pachadi solti, hos garam.
"""

Label pachadi solti, hos garam.

variable T equal 3300-2*100
# variable T equal 4550

reset_timestep 0
fix 1 all npt temp $T $T $(dt*100) iso $P $P $(dt*1000)
fix 1 all npt temp 3100 $T $(dt*100) iso $P $P $(dt*1000)
fix 1 all npt temp 3100 3100 $(dt*100) iso $P $P $(dt*1000)
fix 1 all npt temp 3100 3100 0.10000000000000000555 iso $P $P $(dt*1000)
fix 1 all npt temp 3100 3100 0.10000000000000000555 iso 800000 $P $(dt*1000)
fix 1 all npt temp 3100 3100 0.10000000000000000555 iso 800000 800000 $(dt*1000)
fix 1 all npt temp 3100 3100 0.10000000000000000555 iso 800000 800000 1
print """
<--------------------------------------------------------------------->
<------------------ Equilibrating at temperature $T ----------------->
<--------------------------------------------------------------------->
"""

<--------------------------------------------------------------------->
<------------------ Equilibrating at temperature 3100 ----------------->
<--------------------------------------------------------------------->

run 250000
Last active /omp style is pair_style eam/alloy/omp
Step Temp Volume Press KinEng PotEng Density
0    3171.3272    19037.079    821576.25    839.11895   -7188.4414    10.527791
Averages over the last 126 of 251 rows, steps 125000 to 250000:
Temp Volume Press KinEng PotEng Density
3098.44 19113.5 799256 819.833 -7236.17 10.4857
Loop time of 560.327 on 8 procs for 250000 steps with 2048 atoms

# fix 132 all momentum 100 linear 1 1 1 angular

# dump 3 all custom 1000 traj_npt_new.lammpstrj id type x y z
run 50000
Last active /omp style is pair_style eam/alloy/omp
Step Temp Volume Press KinEng PotEng Density
250000    2993.8332    19119.746    797029.41    792.15483    -7238.307    10.482273
Averages over the last 26 of 51 rows, steps 275000 to 300000:
Temp Volume Press KinEng PotEng Density
3110.54 19116.4 798536 823.035 -7238.71 10.4842
Loop time of 113.374 on 8 procs for 50000 steps with 2048 atoms

unfix temp
unfix out_file_1

write_data after_cooling_press_$P_$T.in
write_data after_cooling_press_800000_$T.in
write_data after_cooling_press_800000_3100.in
System init for write_data ...
Last active /omp style is pair_style eam/alloy/omp
write_restart after_cooling_press_$P_$T.lmp
write_restart after_cooling_press_800000_$T.lmp
write_restart after_cooling_press_800000_3100.lmp
System init for write_restart ...
Last active /omp style is pair_style eam/alloy/omp

next loopVar  #<----->
jump in.lmp ensemble

print """
Label pachadi solti, hos garam.
"""

Label pachadi solti, hos garam.

variable T equal 3300-3*100
# variable T equal 4550

reset_timestep 0
fix 1 all npt temp $T $T $(dt*100) iso $P $P $(dt*1000)
fix 1 all npt temp 3000 $T $(dt*100) iso $P $P $(dt*1000)
fix 1 all npt temp 3000 3000 $(dt*100) iso $P $P $(dt*1000)
fix 1 all npt temp 3000 3000 0.10000000000000000555 iso $P $P $(dt*1000)
fix 1 all npt temp 3000 3000 0.10000000000000000555 iso 800000 $P $(dt*1000)
fix 1 all npt temp 3000 3000 0.10000000000000000555 iso 800000 800000 $(dt*1000)
fix 1 all npt temp 3000 3000 0.10000000000000000555 iso 800000 800000 1
print """
<--------------------------------------------------------------------->
<------------------ Equilibrating at temperature $T ----------------->
<--------------------------------------------------------------------->
"""

<--------------------------------------------------------------------->
<------------------ Equilibrating at temperature 3000 ----------------->
<--------------------------------------------------------------------->

run 250000
Last active /omp style is pair_style eam/alloy/omp
Step Temp Volume Press KinEng PotEng Density
0    3151.8438    19071.216     804419.8    833.96374   -7245.8561    10.508946
Averages over the last 126 of 251 rows, steps 125000 to 250000:
Temp Volume Press KinEng PotEng Density
2999.47 19070.3 799937 793.646 -7257.78 10.5095
Loop time of 564.848 on 8 procs for 250000 steps with 2048 atoms

# fix 132 all momentum 100 linear 1 1 1 angular

# dump 3 all custom 1000 traj_npt_new.lammpstrj id type x y z
run 50000
Last active /omp style is pair_style eam/alloy/omp
Step Temp Volume Press KinEng PotEng Density
250000    2902.5551    19070.574    794521.31    768.00305   -7279.1047      10.5093
Averages over the last 26 of 51 rows, steps 275000 to 300000:
Temp Volume Press KinEng PotEng Density
3002.96 19066 802289 794.57 -7250.09 10.5118
Loop time of 133.556 on 8 procs for 50000 steps with 2048 atoms

unfix temp
unfix out_file_1

write_data after_cooling_press_$P_$T.in
write_data after_cooling_press_800000_$T.in
write_data after_cooling_press_800000_3000.in
System init for write_data ...
Last active /omp style is pair_style eam/alloy/omp
write_restart after_cooling_press_$P_$T.lmp
write_restart after_cooling_press_800000_$T.lmp
write_restart after_cooling_press_800000_3000.lmp
System init for write_restart ...
Last active /omp style is pair_style eam/alloy/omp

next loopVar  #<----->
jump in.lmp ensemble

print """
Label pachadi solti, hos garam.
"""

Label pachadi solti, hos garam.

variable T equal 3300-4*100
# variable T equal 4550

reset_timestep 0
fix 1 all npt temp $T $T $(dt*100) iso $P $P $(dt*1000)
fix 1 all npt temp 2900 $T $(dt*100) iso $P $P $(dt*1000)
fix 1 all npt temp 2900 2900 $(dt*100) iso $P $P $(dt*1000)
fix 1 all npt temp 2900 2900 0.10000000000000000555 iso $P $P $(dt*1000)
fix 1 all npt temp 2900 2900 0.10000000000000000555 iso 800000 $P $(dt*1000)
fix 1 all npt temp 2900 2900 0.10000000000000000555 iso 800000 800000 $(dt*1000)
fix 1 all npt temp 2900 2900 0.10000000000000000555 iso 800000 800000 1
print """
<--------------------------------------------------------------------->
<------------------ Equilibrating at temperature $T ----------------->
<--------------------------------------------------------------------->
"""

<--------------------------------------------------------------------->
<------------------ Equilibrating at temperature 2900 ----------------->
<--------------------------------------------------------------------->

run 250000
Last active /omp style is pair_style eam/alloy/omp
Step Temp Volume Press KinEng PotEng Density
0    3058.5701     19032.06    809295.09    809.28393   -7245.7188    10.530567
Averages over the last 126 of 251 rows, steps 125000 to 250000:
Temp Volume Press KinEng PotEng Density
2901.45 19036.3 799299 767.71 -7280.56 10.5283
Loop time of 559.19 on 8 procs for 250000 steps with 2048 atoms

# fix 132 all momentum 100 linear 1 1 1 angular

# dump 3 all custom 1000 traj_npt_new.lammpstrj id type x y z
run 50000
Last active /omp style is pair_style eam/alloy/omp
Step Temp Volume Press KinEng PotEng Density
250000    2869.2125    19044.437    796922.04    759.18075   -7282.6787    10.523723
Averages over the last 26 of 51 rows, steps 275000 to 300000:
Temp Volume Press KinEng PotEng Density
2899.99 19035.5 798486 767.326 -7284.62 10.5287
Loop time of 112.163 on 8 procs for 50000 steps with 2048 atoms

unfix temp
unfix out_file_1

write_data after_cooling_press_$P_$T.in
write_data after_cooling_press_800000_$T.in
write_data after_cooling_press_800000_2900.in
System init for write_data ...
Last active /omp style is pair_style eam/alloy/omp
write_restart after_cooling_press_$P_$T.lmp
write_restart after_cooling_press_800000_$T.lmp
write_restart after_cooling_press_800000_2900.lmp
System init for write_restart ...
Last active /omp style is pair_style eam/alloy/omp

next loopVar  #<----->
jump in.lmp ensemble

print """
Label pachadi solti, hos garam.
"""

Label pachadi solti, hos garam.

variable T equal 3300-5*100
# variable T equal 4550

reset_timestep 0
fix 1 all npt temp $T $T $(dt*100) iso $P $P $(dt*1000)
fix 1 all npt temp 2800 $T $(dt*100) iso $P $P $(dt*1000)
fix 1 all npt temp 2800 2800 $(dt*100) iso $P $P $(dt*1000)
fix 1 all npt temp 2800 2800 0.10000000000000000555 iso $P $P $(dt*1000)
fix 1 all npt temp 2800 2800 0.10000000000000000555 iso 800000 $P $(dt*1000)
fix 1 all npt temp 2800 2800 0.10000000000000000555 iso 800000 800000 $(dt*1000)
fix 1 all npt temp 2800 2800 0.10000000000000000555 iso 800000 800000 1
print """
<--------------------------------------------------------------------->
<------------------ Equilibrating at temperature $T ----------------->
<--------------------------------------------------------------------->
"""

<--------------------------------------------------------------------->
<------------------ Equilibrating at temperature 2800 ----------------->
<--------------------------------------------------------------------->

run 250000
Last active /omp style is pair_style eam/alloy/omp
Step Temp Volume Press KinEng PotEng Density
0    2931.7053    19027.781    801128.75    775.71608   -7277.0981    10.532935
Averages over the last 126 of 251 rows, steps 125000 to 250000:
Temp Volume Press KinEng PotEng Density
2789.29 19015.3 795247 738.034 -7308.72 10.5399
Loop time of 561.463 on 8 procs for 250000 steps with 2048 atoms

# fix 132 all momentum 100 linear 1 1 1 angular

# dump 3 all custom 1000 traj_npt_new.lammpstrj id type x y z
run 50000
Last active /omp style is pair_style eam/alloy/omp
Step Temp Volume Press KinEng PotEng Density
250000    2768.1908    19050.679    787372.82    732.45088   -7322.4383    10.520275
Averages over the last 26 of 51 rows, steps 275000 to 300000:
Temp Volume Press KinEng PotEng Density
2799.77 18981.9 803856 740.806 -7291.76 10.5584
Loop time of 112.451 on 8 procs for 50000 steps with 2048 atoms

unfix temp
unfix out_file_1

write_data after_cooling_press_$P_$T.in
write_data after_cooling_press_800000_$T.in
write_data after_cooling_press_800000_2800.in
System init for write_data ...
Last active /omp style is pair_style eam/alloy/omp
write_restart after_cooling_press_$P_$T.lmp
write_restart after_cooling_press_800000_$T.lmp
write_restart after_cooling_press_800000_2800.lmp
System init for write_restart ...
Last active /omp style is pair_style eam/alloy/omp

next loopVar  #<----->
jump in.lmp ensemble

print """
Label pachadi solti, hos garam.
"""

Label pachadi solti, hos garam.

variable T equal 3300-6*100
# variable T equal 4550

reset_timestep 0
fix 1 all npt temp $T $T $(dt*100) iso $P $P $(dt*1000)
fix 1 all npt temp 2700 $T $(dt*100) iso $P $P $(dt*1000)
fix 1 all npt temp 2700 2700 $(dt*100) iso $P $P $(dt*1000)
fix 1 all npt temp 2700 2700 0.10000000000000000555 iso $P $P $(dt*1000)
fix 1 all npt temp 2700 2700 0.10000000000000000555 iso 800000 $P $(dt*1000)
fix 1 all npt temp 2700 2700 0.10000000000000000555 iso 800000 800000 $(dt*1000)
fix 1 all npt temp 2700 2700 0.10000000000000000555 iso 800000 800000 1
print """
<--------------------------------------------------------------------->
<------------------ Equilibrating at temperature $T ----------------->
<--------------------------------------------------------------------->
"""

<--------------------------------------------------------------------->
<------------------ Equilibrating at temperature 2700 ----------------->
<--------------------------------------------------------------------->

run 250000
Last active /omp style is pair_style eam/alloy/omp
Step Temp Volume Press KinEng PotEng Density
0    2775.4676    18998.622    800395.65    734.37629     -7295.77    10.549101
Averages over the last 126 of 251 rows, steps 125000 to 250000:
Temp Volume Press KinEng PotEng Density
2699.38 18949.1 801403 714.244 -7322.62 10.5767
Loop time of 586.555 on 8 procs for 250000 steps with 2048 atoms

# fix 132 all momentum 100 linear 1 1 1 angular

# dump 3 all custom 1000 traj_npt_new.lammpstrj id type x y z
run 50000
Last active /omp style is pair_style eam/alloy/omp
Step Temp Volume Press KinEng PotEng Density
250000    2623.2518    18944.662    794076.81    694.10065   -7360.5046    10.579148
Averages over the last 26 of 51 rows, steps 275000 to 300000:
Temp Volume Press KinEng PotEng Density
2700.42 18659.6 801851 714.518 -7568.44 10.7408
Loop time of 110.113 on 8 procs for 50000 steps with 2048 atoms

unfix temp
unfix out_file_1

write_data after_cooling_press_$P_$T.in
write_data after_cooling_press_800000_$T.in
write_data after_cooling_press_800000_2700.in
System init for write_data ...
Last active /omp style is pair_style eam/alloy/omp
write_restart after_cooling_press_$P_$T.lmp
write_restart after_cooling_press_800000_$T.lmp
write_restart after_cooling_press_800000_2700.lmp
System init for write_restart ...
Last active /omp style is pair_style eam/alloy/omp

next loopVar  #<----->
jump in.lmp ensemble
