LAMMPS (29 Oct 2020)
package omp 0
using multi-threaded neighbor list subroutines
package omp 2
set 2 OpenMP thread(s) per MPI task
using multi-threaded neighbor list subroutines
# units metal  #<----->
# dimension 3
# boundary p p p

# lattice fcc 3.5440
# region box block 0 8 0 8 0 8 units lattice
# create_box 1 box
# create_atoms 1 box

# read_restart after_heating_press_800000_5000.lmp  #<----->
read_restart after_cooling_press_800000_2700.lmp
Reading restart file ...
  restart file = 29 Oct 2020, LAMMPS = 29 Oct 2020
  restoring atom style atomic from restart
  orthogonal box = (0.9198515 0.9198515 0.9198515) to (27.432149 27.432149 27.432149)
  pair style eam/alloy/omp stores no restart info
  2048 atoms
  read_restart CPU = 0.001 seconds

variable P equal 800000     #<----->
variable dt equal 0.001
variable loopVar loop 2
variable sys_press equal "press/10000"

# variable sim string "heating"  #<----->
variable sim string "cooling"

pair_style eam/alloy
pair_coeff * * Co_Zhou04.eam.alloy Co
Reading eam/alloy potential file Co_Zhou04.eam.alloy with DATE: 2018-03-30

neighbor 2 bin
neigh_modify every 10 check yes

thermo 1000
thermo_style custom step temp vol press ke pe density

timestep $(dt)
timestep 0.0010000000000000000208

# velocity all create 4400 123123 #<----->

print """
yo aagadi
"""

yo aagadi

label ensemble

print """
Label pachadi solti, hos garam.
"""

Label pachadi solti, hos garam.

variable T equal 2700-1*100
# variable T equal 4550

reset_timestep 0
fix 1 all npt temp $T $T $(dt*100) iso $P $P $(dt*1000)
fix 1 all npt temp 2600 $T $(dt*100) iso $P $P $(dt*1000)
fix 1 all npt temp 2600 2600 $(dt*100) iso $P $P $(dt*1000)
fix 1 all npt temp 2600 2600 0.10000000000000000555 iso $P $P $(dt*1000)
fix 1 all npt temp 2600 2600 0.10000000000000000555 iso 800000 $P $(dt*1000)
fix 1 all npt temp 2600 2600 0.10000000000000000555 iso 800000 800000 $(dt*1000)
fix 1 all npt temp 2600 2600 0.10000000000000000555 iso 800000 800000 1
  fix style: npt/omp, fix ID: 1
print """
<--------------------------------------------------------------------->
<------------------ Equilibrating at temperature $T ----------------->
<--------------------------------------------------------------------->
"""

<--------------------------------------------------------------------->
<------------------ Equilibrating at temperature 2600 ----------------->
<--------------------------------------------------------------------->

run 250000
All restart file global fix info was re-assigned
Last active /omp style is pair_style eam/alloy/omp
  update every 10 steps, delay 10 steps, check yes
Step Temp Volume Press KinEng PotEng Density
0    2726.9247    18635.544    802894.76    721.53205   -7583.6753     10.75463
Averages over the last 126 of 251 rows, steps 125000 to 250000:
Temp Volume Press KinEng PotEng Density
2597.65 18626.9 801282 687.326 -7589.98 10.7597
Loop time of 541.152 on 8 procs for 250000 steps with 2048 atoms

# fix 132 all momentum 100 linear 1 1 1 angular

# dump 3 all custom 1000 traj_npt_new.lammpstrj id type x y z
run 50000
Last active /omp style is pair_style eam/alloy/omp
Step Temp Volume Press KinEng PotEng Density
250000    2647.2079    18584.091    809455.34    700.43934   -7586.9958    10.784406
Averages over the last 26 of 51 rows, steps 275000 to 300000:
Temp Volume Press KinEng PotEng Density
2599.22 18624.6 801350 687.742 -7591.44 10.761
Loop time of 112.954 on 8 procs for 50000 steps with 2048 atoms

unfix temp
unfix out_file_1

write_data after_cooling_press_$P_$T.in
write_data after_cooling_press_800000_$T.in
write_data after_cooling_press_800000_2600.in
System init for write_data ...
Last active /omp style is pair_style eam/alloy/omp
write_restart after_cooling_press_$P_$T.lmp
write_restart after_cooling_press_800000_$T.lmp
write_restart after_cooling_press_800000_2600.lmp
System init for write_restart ...
Last active /omp style is pair_style eam/alloy/omp

next loopVar  #<----->
jump in.lmp ensemble

print """
Label pachadi solti, hos garam.
"""

Label pachadi solti, hos garam.

variable T equal 2700-2*100
# variable T equal 4550

reset_timestep 0
fix 1 all npt temp $T $T $(dt*100) iso $P $P $(dt*1000)
fix 1 all npt temp 2500 $T $(dt*100) iso $P $P $(dt*1000)
fix 1 all npt temp 2500 2500 $(dt*100) iso $P $P $(dt*1000)
fix 1 all npt temp 2500 2500 0.10000000000000000555 iso $P $P $(dt*1000)
fix 1 all npt temp 2500 2500 0.10000000000000000555 iso 800000 $P $(dt*1000)
fix 1 all npt temp 2500 2500 0.10000000000000000555 iso 800000 800000 $(dt*1000)
fix 1 all npt temp 2500 2500 0.10000000000000000555 iso 800000 800000 1
print """
<--------------------------------------------------------------------->
<------------------ Equilibrating at temperature $T ----------------->
<--------------------------------------------------------------------->
"""

<--------------------------------------------------------------------->
<------------------ Equilibrating at temperature 2500 ----------------->
<--------------------------------------------------------------------->

run 250000
Last active /omp style is pair_style eam/alloy/omp
Step Temp Volume Press KinEng PotEng Density
0    2590.2777    18534.872     821848.8    685.37586   -7559.5396    10.813044
Averages over the last 126 of 251 rows, steps 125000 to 250000:
Temp Volume Press KinEng PotEng Density
2503.95 18600.5 800594 662.533 -7608.22 10.7749
Loop time of 613.762 on 8 procs for 250000 steps with 2048 atoms

# fix 132 all momentum 100 linear 1 1 1 angular

# dump 3 all custom 1000 traj_npt_new.lammpstrj id type x y z
run 50000
Last active /omp style is pair_style eam/alloy/omp
Step Temp Volume Press KinEng PotEng Density
250000    2559.1401    18622.283    796014.77      677.137   -7617.0325    10.762289
