LAMMPS (29 Oct 2020)
package omp 0
using multi-threaded neighbor list subroutines
package omp 2
set 2 OpenMP thread(s) per MPI task
using multi-threaded neighbor list subroutines
units metal
dimension 3
boundary p p p

lattice fcc 3.5440
Lattice spacing in x,y,z = 3.5440000 3.5440000 3.5440000
region box block 0 6 0 6 0 6 units lattice
create_box 1 box
Created orthogonal box = (0.0000000 0.0000000 0.0000000) to (21.264000 21.264000 21.264000)
create_atoms 1 box
Created 864 atoms

# read_restart after_heating_2400.lmp

variable P equal 0
variable dt equal 0.001
variable loopVar loop 22
variable sys_press equal "press/10000"
# print "step temp vol pe" file heating.txt screen no

pair_style eam/alloy
pair_coeff * * Co_Zhou04.eam.alloy Co
Reading eam/alloy potential file Co_Zhou04.eam.alloy with DATE: 2018-03-30

neighbor 2 bin
neigh_modify every 10 check yes

thermo 1000
thermo_style custom step temp vol press ke pe density

timestep $(dt)
timestep 0.0010000000000000000208

# fix 2 all npt temp 300 300 $(dt*100) iso 0 0 $(dt*1000)
# run 30000
# unfix 2

# dump_modify 1 append yes
# dump 3 all custom 10000 traj_npt_new.lammpstrj id type x y z

velocity all create 300 123123

print """
asdfasdfasdfasdfsadfasddsaffffffffffff
"""

asdfasdfasdfasdfsadfasddsaffffffffffff

label ensemble

print """
Hi HI Hi
# """

Hi HI Hi
#
variable T equal 200+1*100
# variable T equal 1200
# velocity all create 1200 123123
reset_timestep 0
fix 1 all npt temp $T $T $(dt*100) iso 0 0 $(dt*1000)
fix 1 all npt temp 300 $T $(dt*100) iso 0 0 $(dt*1000)
fix 1 all npt temp 300 300 $(dt*100) iso 0 0 $(dt*1000)
fix 1 all npt temp 300 300 0.10000000000000000555 iso 0 0 $(dt*1000)
fix 1 all npt temp 300 300 0.10000000000000000555 iso 0 0 1
print """
<--------------------------------------------------------------------->
<------------------ Equilibrating at temperature $T ----------------->
<--------------------------------------------------------------------->
"""

<--------------------------------------------------------------------->
<------------------ Equilibrating at temperature 300 ----------------->
<--------------------------------------------------------------------->

run 250000
Last active /omp style is pair_style eam/alloy/omp
  update every 10 steps, delay 10 steps, check yes
Step Temp Volume Press KinEng PotEng Density
0          300    9614.6812    11397.963    33.465452   -3803.5225        8.794
Averages over the last 126 of 251 rows, steps 125000 to 250000:
Temp Volume Press KinEng PotEng Density
299.208 9774.15 -62.4413 33.3771 -3769.67 8.65054
Loop time of 710.952 on 4 procs for 250000 steps with 864 atoms

# fix 132 all momentum 100 linear 1 1 1 angular

# dump 3 all custom 1000 traj_npt_new.lammpstrj id type x y z
run 50000
Last active /omp style is pair_style eam/alloy/omp
Step Temp Volume Press KinEng PotEng Density
250000    288.54974    9797.7937   -4355.4128    32.188158   -3769.4992    8.6296476
Averages over the last 26 of 51 rows, steps 275000 to 300000:
Temp Volume Press KinEng PotEng Density
300.99 9778.43 -863.022 33.5759 -3769.8 8.64676
Loop time of 139.297 on 4 procs for 50000 steps with 864 atoms

unfix temp
unfix out_file_1
# unfix 1
# # clear
write_data after_heating_$T.in
write_data after_heating_300.in
System init for write_data ...
Last active /omp style is pair_style eam/alloy/omp
write_restart after_heating_$T.lmp
write_restart after_heating_300.lmp
System init for write_restart ...
Last active /omp style is pair_style eam/alloy/omp
next loopVar
# # # thermo_modify flush yes
jump in.lmp ensemble

print """
Hi HI Hi
# """

Hi HI Hi
#
variable T equal 200+2*100
# variable T equal 1200
# velocity all create 1200 123123
reset_timestep 0
fix 1 all npt temp $T $T $(dt*100) iso 0 0 $(dt*1000)
fix 1 all npt temp 400 $T $(dt*100) iso 0 0 $(dt*1000)
fix 1 all npt temp 400 400 $(dt*100) iso 0 0 $(dt*1000)
fix 1 all npt temp 400 400 0.10000000000000000555 iso 0 0 $(dt*1000)
fix 1 all npt temp 400 400 0.10000000000000000555 iso 0 0 1
print """
<--------------------------------------------------------------------->
<------------------ Equilibrating at temperature $T ----------------->
<--------------------------------------------------------------------->
"""

<--------------------------------------------------------------------->
<------------------ Equilibrating at temperature 400 ----------------->
<--------------------------------------------------------------------->

run 250000
Last active /omp style is pair_style eam/alloy/omp
Step Temp Volume Press KinEng PotEng Density
0    290.82318    9784.9791   -1996.1506    32.441764   -3769.5339    8.6409491
Averages over the last 126 of 251 rows, steps 125000 to 250000:
Temp Volume Press KinEng PotEng Density
399.09 9815.25 -233.404 44.5191 -3758.02 8.61433
Loop time of 826.321 on 4 procs for 250000 steps with 864 atoms

# fix 132 all momentum 100 linear 1 1 1 angular

# dump 3 all custom 1000 traj_npt_new.lammpstrj id type x y z
run 50000
Last active /omp style is pair_style eam/alloy/omp
Step Temp Volume Press KinEng PotEng Density
250000    394.82886    9801.5225    3137.9322    44.043753   -3756.1112    8.6263646
Averages over the last 26 of 51 rows, steps 275000 to 300000:
Temp Volume Press KinEng PotEng Density
401.175 9816.41 -290.94 44.7517 -3757.79 8.61332
Loop time of 183.823 on 4 procs for 50000 steps with 864 atoms

unfix temp
unfix out_file_1
# unfix 1
# # clear
write_data after_heating_$T.in
write_data after_heating_400.in
System init for write_data ...
Last active /omp style is pair_style eam/alloy/omp
write_restart after_heating_$T.lmp
write_restart after_heating_400.lmp
System init for write_restart ...
Last active /omp style is pair_style eam/alloy/omp
next loopVar
# # # thermo_modify flush yes
jump in.lmp ensemble

print """
Hi HI Hi
# """

Hi HI Hi
#
variable T equal 200+3*100
# variable T equal 1200
# velocity all create 1200 123123
reset_timestep 0
fix 1 all npt temp $T $T $(dt*100) iso 0 0 $(dt*1000)
fix 1 all npt temp 500 $T $(dt*100) iso 0 0 $(dt*1000)
fix 1 all npt temp 500 500 $(dt*100) iso 0 0 $(dt*1000)
fix 1 all npt temp 500 500 0.10000000000000000555 iso 0 0 $(dt*1000)
fix 1 all npt temp 500 500 0.10000000000000000555 iso 0 0 1
print """
<--------------------------------------------------------------------->
<------------------ Equilibrating at temperature $T ----------------->
<--------------------------------------------------------------------->
"""

<--------------------------------------------------------------------->
<------------------ Equilibrating at temperature 500 ----------------->
<--------------------------------------------------------------------->

run 250000
Last active /omp style is pair_style eam/alloy/omp
Step Temp Volume Press KinEng PotEng Density
0    392.83602    9812.1264    184.50572    43.821449   -3757.8616    8.6170421
Averages over the last 126 of 251 rows, steps 125000 to 250000:
Temp Volume Press KinEng PotEng Density
500.873 9855.4 -68.137 55.8731 -3746 8.57924
Loop time of 812.646 on 4 procs for 250000 steps with 864 atoms

# fix 132 all momentum 100 linear 1 1 1 angular

# dump 3 all custom 1000 traj_npt_new.lammpstrj id type x y z
run 50000
Last active /omp style is pair_style eam/alloy/omp
Step Temp Volume Press KinEng PotEng Density
250000    492.07352    9884.4924   -4624.8233    54.891541   -3744.9173    8.5539554
Averages over the last 26 of 51 rows, steps 275000 to 300000:
Temp Volume Press KinEng PotEng Density
502.479 9855.54 -61.6966 56.0523 -3746.1 8.5791
Loop time of 150.943 on 4 procs for 50000 steps with 864 atoms

unfix temp
unfix out_file_1
# unfix 1
# # clear
write_data after_heating_$T.in
write_data after_heating_500.in
System init for write_data ...
Last active /omp style is pair_style eam/alloy/omp
write_restart after_heating_$T.lmp
write_restart after_heating_500.lmp
System init for write_restart ...
Last active /omp style is pair_style eam/alloy/omp
next loopVar
# # # thermo_modify flush yes
jump in.lmp ensemble

print """
Hi HI Hi
# """

Hi HI Hi
#
variable T equal 200+4*100
# variable T equal 1200
# velocity all create 1200 123123
reset_timestep 0
fix 1 all npt temp $T $T $(dt*100) iso 0 0 $(dt*1000)
fix 1 all npt temp 600 $T $(dt*100) iso 0 0 $(dt*1000)
fix 1 all npt temp 600 600 $(dt*100) iso 0 0 $(dt*1000)
fix 1 all npt temp 600 600 0.10000000000000000555 iso 0 0 $(dt*1000)
fix 1 all npt temp 600 600 0.10000000000000000555 iso 0 0 1
print """
<--------------------------------------------------------------------->
<------------------ Equilibrating at temperature $T ----------------->
<--------------------------------------------------------------------->
"""

<--------------------------------------------------------------------->
<------------------ Equilibrating at temperature 600 ----------------->
<--------------------------------------------------------------------->

run 250000
Last active /omp style is pair_style eam/alloy/omp
Step Temp Volume Press KinEng PotEng Density
0    516.03499    9848.7047    817.25477     57.56448    -3747.121    8.5850383
Averages over the last 126 of 251 rows, steps 125000 to 250000:
Temp Volume Press KinEng PotEng Density
600.923 9894.88 42.2078 67.0339 -3734.32 8.54502
Loop time of 692.075 on 4 procs for 250000 steps with 864 atoms

# fix 132 all momentum 100 linear 1 1 1 angular

# dump 3 all custom 1000 traj_npt_new.lammpstrj id type x y z
run 50000
Last active /omp style is pair_style eam/alloy/omp
Step Temp Volume Press KinEng PotEng Density
250000    590.39324    9878.8701    761.28338    65.859255   -3738.6224    8.5588236
Averages over the last 26 of 51 rows, steps 275000 to 300000:
Temp Volume Press KinEng PotEng Density
596.74 9894.58 15.1344 66.5672 -3734.42 8.54529
Loop time of 142.656 on 4 procs for 50000 steps with 864 atoms

unfix temp
unfix out_file_1
# unfix 1
# # clear
write_data after_heating_$T.in
write_data after_heating_600.in
System init for write_data ...
Last active /omp style is pair_style eam/alloy/omp
write_restart after_heating_$T.lmp
write_restart after_heating_600.lmp
System init for write_restart ...
Last active /omp style is pair_style eam/alloy/omp
next loopVar
# # # thermo_modify flush yes
jump in.lmp ensemble

print """
Hi HI Hi
# """

Hi HI Hi
#
variable T equal 200+5*100
# variable T equal 1200
# velocity all create 1200 123123
reset_timestep 0
fix 1 all npt temp $T $T $(dt*100) iso 0 0 $(dt*1000)
fix 1 all npt temp 700 $T $(dt*100) iso 0 0 $(dt*1000)
fix 1 all npt temp 700 700 $(dt*100) iso 0 0 $(dt*1000)
fix 1 all npt temp 700 700 0.10000000000000000555 iso 0 0 $(dt*1000)
fix 1 all npt temp 700 700 0.10000000000000000555 iso 0 0 1
print """
<--------------------------------------------------------------------->
<------------------ Equilibrating at temperature $T ----------------->
<--------------------------------------------------------------------->
"""

<--------------------------------------------------------------------->
<------------------ Equilibrating at temperature 700 ----------------->
<--------------------------------------------------------------------->

run 250000
Last active /omp style is pair_style eam/alloy/omp
Step Temp Volume Press KinEng PotEng Density
0    579.62591    9875.5176    4128.1609    64.658142   -3732.4169    8.5617291
Averages over the last 126 of 251 rows, steps 125000 to 250000:
Temp Volume Press KinEng PotEng Density
696.975 9938.43 -225.007 77.7486 -3721.9 8.50759
Loop time of 720.859 on 4 procs for 250000 steps with 864 atoms

# fix 132 all momentum 100 linear 1 1 1 angular

# dump 3 all custom 1000 traj_npt_new.lammpstrj id type x y z
run 50000
Last active /omp style is pair_style eam/alloy/omp
Step Temp Volume Press KinEng PotEng Density
250000    665.77075    9995.9743   -9433.4911    74.267729   -3719.7654    8.4585559
Averages over the last 26 of 51 rows, steps 275000 to 300000:
Temp Volume Press KinEng PotEng Density
697.355 9939.52 -138.188 77.791 -3721.47 8.50665
Loop time of 143.16 on 4 procs for 50000 steps with 864 atoms

unfix temp
unfix out_file_1
# unfix 1
# # clear
write_data after_heating_$T.in
write_data after_heating_700.in
System init for write_data ...
Last active /omp style is pair_style eam/alloy/omp
write_restart after_heating_$T.lmp
write_restart after_heating_700.lmp
System init for write_restart ...
Last active /omp style is pair_style eam/alloy/omp
next loopVar
# # # thermo_modify flush yes
jump in.lmp ensemble

print """
Hi HI Hi
# """

Hi HI Hi
#
variable T equal 200+6*100
# variable T equal 1200
# velocity all create 1200 123123
reset_timestep 0
fix 1 all npt temp $T $T $(dt*100) iso 0 0 $(dt*1000)
fix 1 all npt temp 800 $T $(dt*100) iso 0 0 $(dt*1000)
fix 1 all npt temp 800 800 $(dt*100) iso 0 0 $(dt*1000)
fix 1 all npt temp 800 800 0.10000000000000000555 iso 0 0 $(dt*1000)
fix 1 all npt temp 800 800 0.10000000000000000555 iso 0 0 1
print """
<--------------------------------------------------------------------->
<------------------ Equilibrating at temperature $T ----------------->
<--------------------------------------------------------------------->
"""

<--------------------------------------------------------------------->
<------------------ Equilibrating at temperature 800 ----------------->
<--------------------------------------------------------------------->

run 250000
Last active /omp style is pair_style eam/alloy/omp
Step Temp Volume Press KinEng PotEng Density
0    684.69326    9917.7097    3093.2407    76.378564    -3722.199    8.5253057
Averages over the last 126 of 251 rows, steps 125000 to 250000:
Temp Volume Press KinEng PotEng Density
797.981 9976.86 221.121 89.016 -3709.85 8.47482
Loop time of 716.306 on 4 procs for 250000 steps with 864 atoms

# fix 132 all momentum 100 linear 1 1 1 angular

# dump 3 all custom 1000 traj_npt_new.lammpstrj id type x y z
run 50000
Last active /omp style is pair_style eam/alloy/omp
Step Temp Volume Press KinEng PotEng Density
250000    785.34438    9937.6034    6334.1072    87.606348   -3710.8049    8.5082392
Averages over the last 26 of 51 rows, steps 275000 to 300000:
Temp Volume Press KinEng PotEng Density
802.312 9978.95 -314.724 89.4991 -3710.27 8.47304
Loop time of 144.142 on 4 procs for 50000 steps with 864 atoms

unfix temp
unfix out_file_1
# unfix 1
# # clear
write_data after_heating_$T.in
write_data after_heating_800.in
System init for write_data ...
Last active /omp style is pair_style eam/alloy/omp
write_restart after_heating_$T.lmp
write_restart after_heating_800.lmp
System init for write_restart ...
Last active /omp style is pair_style eam/alloy/omp
next loopVar
# # # thermo_modify flush yes
jump in.lmp ensemble

print """
Hi HI Hi
# """

Hi HI Hi
#
variable T equal 200+7*100
# variable T equal 1200
# velocity all create 1200 123123
reset_timestep 0
fix 1 all npt temp $T $T $(dt*100) iso 0 0 $(dt*1000)
fix 1 all npt temp 900 $T $(dt*100) iso 0 0 $(dt*1000)
fix 1 all npt temp 900 900 $(dt*100) iso 0 0 $(dt*1000)
fix 1 all npt temp 900 900 0.10000000000000000555 iso 0 0 $(dt*1000)
fix 1 all npt temp 900 900 0.10000000000000000555 iso 0 0 1
print """
<--------------------------------------------------------------------->
<------------------ Equilibrating at temperature $T ----------------->
<--------------------------------------------------------------------->
"""

<--------------------------------------------------------------------->
<------------------ Equilibrating at temperature 900 ----------------->
<--------------------------------------------------------------------->

run 250000
Last active /omp style is pair_style eam/alloy/omp
Step Temp Volume Press KinEng PotEng Density
0    819.59316    10001.787   -2882.9515    91.426851   -3707.4684    8.4536404
Averages over the last 126 of 251 rows, steps 125000 to 250000:
Temp Volume Press KinEng PotEng Density
898.55 10021.7 -116.97 100.235 -3697.22 8.43695
Loop time of 748.744 on 4 procs for 250000 steps with 864 atoms

# fix 132 all momentum 100 linear 1 1 1 angular

# dump 3 all custom 1000 traj_npt_new.lammpstrj id type x y z
run 50000
Last active /omp style is pair_style eam/alloy/omp
Step Temp Volume Press KinEng PotEng Density
250000     867.9417    10013.921    2762.6882    96.820204   -3692.6534    8.4433963
Averages over the last 26 of 51 rows, steps 275000 to 300000:
Temp Volume Press KinEng PotEng Density
905.956 10023.5 -306.176 101.061 -3697.2 8.4354
Loop time of 142.185 on 4 procs for 50000 steps with 864 atoms

unfix temp
unfix out_file_1
# unfix 1
# # clear
write_data after_heating_$T.in
write_data after_heating_900.in
System init for write_data ...
Last active /omp style is pair_style eam/alloy/omp
write_restart after_heating_$T.lmp
write_restart after_heating_900.lmp
System init for write_restart ...
Last active /omp style is pair_style eam/alloy/omp
next loopVar
# # # thermo_modify flush yes
jump in.lmp ensemble

print """
Hi HI Hi
# """

Hi HI Hi
#
variable T equal 200+8*100
# variable T equal 1200
# velocity all create 1200 123123
reset_timestep 0
fix 1 all npt temp $T $T $(dt*100) iso 0 0 $(dt*1000)
fix 1 all npt temp 1000 $T $(dt*100) iso 0 0 $(dt*1000)
fix 1 all npt temp 1000 1000 $(dt*100) iso 0 0 $(dt*1000)
fix 1 all npt temp 1000 1000 0.10000000000000000555 iso 0 0 $(dt*1000)
fix 1 all npt temp 1000 1000 0.10000000000000000555 iso 0 0 1
print """
<--------------------------------------------------------------------->
<------------------ Equilibrating at temperature $T ----------------->
<--------------------------------------------------------------------->
"""

<--------------------------------------------------------------------->
<------------------ Equilibrating at temperature 1000 ----------------->
<--------------------------------------------------------------------->

run 250000
Last active /omp style is pair_style eam/alloy/omp
Step Temp Volume Press KinEng PotEng Density
0    899.22832    10046.665   -3994.2299    100.31027   -3695.9436     8.415878
Averages over the last 126 of 251 rows, steps 125000 to 250000:
Temp Volume Press KinEng PotEng Density
999.499 10063.8 96.5318 111.496 -3684.52 8.40165
Loop time of 712.924 on 4 procs for 250000 steps with 864 atoms

# fix 132 all momentum 100 linear 1 1 1 angular

# dump 3 all custom 1000 traj_npt_new.lammpstrj id type x y z
run 50000
Last active /omp style is pair_style eam/alloy/omp
Step Temp Volume Press KinEng PotEng Density
250000    972.89292    10058.447    647.79103    108.52767   -3684.2788      8.40602
Averages over the last 26 of 51 rows, steps 275000 to 300000:
Temp Volume Press KinEng PotEng Density
1003.64 10060.3 944.806 111.958 -3684.13 8.40458
Loop time of 142.322 on 4 procs for 50000 steps with 864 atoms

unfix temp
unfix out_file_1
# unfix 1
# # clear
write_data after_heating_$T.in
write_data after_heating_1000.in
System init for write_data ...
Last active /omp style is pair_style eam/alloy/omp
write_restart after_heating_$T.lmp
write_restart after_heating_1000.lmp
System init for write_restart ...
Last active /omp style is pair_style eam/alloy/omp
next loopVar
# # # thermo_modify flush yes
jump in.lmp ensemble

print """
Hi HI Hi
# """

Hi HI Hi
#
variable T equal 200+9*100
# variable T equal 1200
# velocity all create 1200 123123
reset_timestep 0
fix 1 all npt temp $T $T $(dt*100) iso 0 0 $(dt*1000)
fix 1 all npt temp 1100 $T $(dt*100) iso 0 0 $(dt*1000)
fix 1 all npt temp 1100 1100 $(dt*100) iso 0 0 $(dt*1000)
fix 1 all npt temp 1100 1100 0.10000000000000000555 iso 0 0 $(dt*1000)
fix 1 all npt temp 1100 1100 0.10000000000000000555 iso 0 0 1
print """
<--------------------------------------------------------------------->
<------------------ Equilibrating at temperature $T ----------------->
<--------------------------------------------------------------------->
"""

<--------------------------------------------------------------------->
<------------------ Equilibrating at temperature 1100 ----------------->
<--------------------------------------------------------------------->

run 250000
Last active /omp style is pair_style eam/alloy/omp
Step Temp Volume Press KinEng PotEng Density
0    992.36361    10088.714   -3987.8706    110.69965   -3684.1916     8.380801
Averages over the last 126 of 251 rows, steps 125000 to 250000:
Temp Volume Press KinEng PotEng Density
1104.26 10118 -1470.93 123.182 -3671.38 8.3566
Loop time of 715.405 on 4 procs for 250000 steps with 864 atoms

# fix 132 all momentum 100 linear 1 1 1 angular

# dump 3 all custom 1000 traj_npt_new.lammpstrj id type x y z
run 50000
Last active /omp style is pair_style eam/alloy/omp
Step Temp Volume Press KinEng PotEng Density
250000    1064.1447    10085.645    2448.7436    118.70694   -3672.1837    8.3833511
Averages over the last 26 of 51 rows, steps 275000 to 300000:
Temp Volume Press KinEng PotEng Density
1094.91 10111.9 -429.243 122.139 -3671.26 8.36167
Loop time of 144.732 on 4 procs for 50000 steps with 864 atoms

unfix temp
unfix out_file_1
# unfix 1
# # clear
write_data after_heating_$T.in
write_data after_heating_1100.in
System init for write_data ...
Last active /omp style is pair_style eam/alloy/omp
write_restart after_heating_$T.lmp
write_restart after_heating_1100.lmp
System init for write_restart ...
Last active /omp style is pair_style eam/alloy/omp
next loopVar
# # # thermo_modify flush yes
jump in.lmp ensemble

print """
Hi HI Hi
# """

Hi HI Hi
#
variable T equal 200+10*100
# variable T equal 1200
# velocity all create 1200 123123
reset_timestep 0
fix 1 all npt temp $T $T $(dt*100) iso 0 0 $(dt*1000)
fix 1 all npt temp 1200 $T $(dt*100) iso 0 0 $(dt*1000)
fix 1 all npt temp 1200 1200 $(dt*100) iso 0 0 $(dt*1000)
fix 1 all npt temp 1200 1200 0.10000000000000000555 iso 0 0 $(dt*1000)
fix 1 all npt temp 1200 1200 0.10000000000000000555 iso 0 0 1
print """
<--------------------------------------------------------------------->
<------------------ Equilibrating at temperature $T ----------------->
<--------------------------------------------------------------------->
"""

<--------------------------------------------------------------------->
<------------------ Equilibrating at temperature 1200 ----------------->
<--------------------------------------------------------------------->

run 250000
Last active /omp style is pair_style eam/alloy/omp
Step Temp Volume Press KinEng PotEng Density
0    1135.6991    10105.242    1608.9701    126.68894   -3670.2804    8.3670933
Averages over the last 126 of 251 rows, steps 125000 to 250000:
Temp Volume Press KinEng PotEng Density
1199.08 10156.2 -301.661 133.759 -3657.99 8.32516
Loop time of 741.64 on 4 procs for 250000 steps with 864 atoms

# fix 132 all momentum 100 linear 1 1 1 angular

# dump 3 all custom 1000 traj_npt_new.lammpstrj id type x y z
run 50000
Last active /omp style is pair_style eam/alloy/omp
Step Temp Volume Press KinEng PotEng Density
250000    1196.4987    10172.627   -2496.6678    133.47123   -3655.7923    8.3116692
Averages over the last 26 of 51 rows, steps 275000 to 300000:
Temp Volume Press KinEng PotEng Density
1188.96 10156.4 36.6625 132.63 -3656.87 8.32511
Loop time of 151.817 on 4 procs for 50000 steps with 864 atoms

unfix temp
unfix out_file_1
# unfix 1
# # clear
write_data after_heating_$T.in
write_data after_heating_1200.in
System init for write_data ...
Last active /omp style is pair_style eam/alloy/omp
write_restart after_heating_$T.lmp
write_restart after_heating_1200.lmp
System init for write_restart ...
Last active /omp style is pair_style eam/alloy/omp
next loopVar
# # # thermo_modify flush yes
jump in.lmp ensemble

print """
Hi HI Hi
# """

Hi HI Hi
#
variable T equal 200+11*100
# variable T equal 1200
# velocity all create 1200 123123
reset_timestep 0
fix 1 all npt temp $T $T $(dt*100) iso 0 0 $(dt*1000)
fix 1 all npt temp 1300 $T $(dt*100) iso 0 0 $(dt*1000)
fix 1 all npt temp 1300 1300 $(dt*100) iso 0 0 $(dt*1000)
fix 1 all npt temp 1300 1300 0.10000000000000000555 iso 0 0 $(dt*1000)
fix 1 all npt temp 1300 1300 0.10000000000000000555 iso 0 0 1
print """
<--------------------------------------------------------------------->
<------------------ Equilibrating at temperature $T ----------------->
<--------------------------------------------------------------------->
"""

<--------------------------------------------------------------------->
<------------------ Equilibrating at temperature 1300 ----------------->
<--------------------------------------------------------------------->

run 250000
Last active /omp style is pair_style eam/alloy/omp
Step Temp Volume Press KinEng PotEng Density
0    1202.6939    10281.399   -17881.482    134.16231   -3651.5843    8.2237356
Averages over the last 126 of 251 rows, steps 125000 to 250000:
Temp Volume Press KinEng PotEng Density
1299.97 10202.8 -281.881 145.013 -3644.4 8.28715
Loop time of 737.471 on 4 procs for 250000 steps with 864 atoms

# fix 132 all momentum 100 linear 1 1 1 angular

# dump 3 all custom 1000 traj_npt_new.lammpstrj id type x y z
run 50000
Last active /omp style is pair_style eam/alloy/omp
Step Temp Volume Press KinEng PotEng Density
250000    1268.4722    10165.743    5714.9156    141.49999   -3644.2731    8.3172974
Averages over the last 26 of 51 rows, steps 275000 to 300000:
Temp Volume Press KinEng PotEng Density
1302.43 10199.8 570.403 145.288 -3643.67 8.2896
Loop time of 143.598 on 4 procs for 50000 steps with 864 atoms

unfix temp
unfix out_file_1
# unfix 1
# # clear
write_data after_heating_$T.in
write_data after_heating_1300.in
System init for write_data ...
Last active /omp style is pair_style eam/alloy/omp
write_restart after_heating_$T.lmp
write_restart after_heating_1300.lmp
System init for write_restart ...
Last active /omp style is pair_style eam/alloy/omp
next loopVar
# # # thermo_modify flush yes
jump in.lmp ensemble

print """
Hi HI Hi
# """

Hi HI Hi
#
variable T equal 200+12*100
# variable T equal 1200
# velocity all create 1200 123123
reset_timestep 0
fix 1 all npt temp $T $T $(dt*100) iso 0 0 $(dt*1000)
fix 1 all npt temp 1400 $T $(dt*100) iso 0 0 $(dt*1000)
fix 1 all npt temp 1400 1400 $(dt*100) iso 0 0 $(dt*1000)
fix 1 all npt temp 1400 1400 0.10000000000000000555 iso 0 0 $(dt*1000)
fix 1 all npt temp 1400 1400 0.10000000000000000555 iso 0 0 1
print """
<--------------------------------------------------------------------->
<------------------ Equilibrating at temperature $T ----------------->
<--------------------------------------------------------------------->
"""

<--------------------------------------------------------------------->
<------------------ Equilibrating at temperature 1400 ----------------->
<--------------------------------------------------------------------->

run 250000
Last active /omp style is pair_style eam/alloy/omp
Step Temp Volume Press KinEng PotEng Density
0     1341.613    10173.047    5716.6327    149.65895   -3643.2655    8.3113261
Averages over the last 126 of 251 rows, steps 125000 to 250000:
Temp Volume Press KinEng PotEng Density
1403.37 10249.8 -40.9036 156.548 -3630.16 8.24916
Loop time of 721.446 on 4 procs for 250000 steps with 864 atoms

# fix 132 all momentum 100 linear 1 1 1 angular

# dump 3 all custom 1000 traj_npt_new.lammpstrj id type x y z
run 50000
Last active /omp style is pair_style eam/alloy/omp
Step Temp Volume Press KinEng PotEng Density
250000    1298.4238    10153.557    14622.816    144.84113   -3629.7288    8.3272796
Averages over the last 26 of 51 rows, steps 275000 to 300000:
Temp Volume Press KinEng PotEng Density
1401.24 10251.8 -1202.99 156.31 -3632.25 8.24759
Loop time of 145.06 on 4 procs for 50000 steps with 864 atoms

unfix temp
unfix out_file_1
# unfix 1
# # clear
write_data after_heating_$T.in
write_data after_heating_1400.in
System init for write_data ...
Last active /omp style is pair_style eam/alloy/omp
write_restart after_heating_$T.lmp
write_restart after_heating_1400.lmp
System init for write_restart ...
Last active /omp style is pair_style eam/alloy/omp
next loopVar
# # # thermo_modify flush yes
jump in.lmp ensemble

print """
Hi HI Hi
# """

Hi HI Hi
#
variable T equal 200+13*100
# variable T equal 1200
# velocity all create 1200 123123
reset_timestep 0
fix 1 all npt temp $T $T $(dt*100) iso 0 0 $(dt*1000)
fix 1 all npt temp 1500 $T $(dt*100) iso 0 0 $(dt*1000)
fix 1 all npt temp 1500 1500 $(dt*100) iso 0 0 $(dt*1000)
fix 1 all npt temp 1500 1500 0.10000000000000000555 iso 0 0 $(dt*1000)
fix 1 all npt temp 1500 1500 0.10000000000000000555 iso 0 0 1
print """
<--------------------------------------------------------------------->
<------------------ Equilibrating at temperature $T ----------------->
<--------------------------------------------------------------------->
"""

<--------------------------------------------------------------------->
<------------------ Equilibrating at temperature 1500 ----------------->
<--------------------------------------------------------------------->

run 250000
Last active /omp style is pair_style eam/alloy/omp
Step Temp Volume Press KinEng PotEng Density
0    1375.6422    10275.748    187.56649    153.45496   -3620.9236    8.2282584
Averages over the last 126 of 251 rows, steps 125000 to 250000:
Temp Volume Press KinEng PotEng Density
1495.79 10301.3 -42.9651 166.858 -3615.12 8.20801
Loop time of 721.819 on 4 procs for 250000 steps with 864 atoms

# fix 132 all momentum 100 linear 1 1 1 angular

# dump 3 all custom 1000 traj_npt_new.lammpstrj id type x y z
run 50000
Last active /omp style is pair_style eam/alloy/omp
Step Temp Volume Press KinEng PotEng Density
250000    1538.0995    10318.031   -391.55577    171.57731   -3611.6739    8.1945391
Averages over the last 26 of 51 rows, steps 275000 to 300000:
Temp Volume Press KinEng PotEng Density
1496.02 10298.3 12.7899 166.884 -3616.12 8.21047
Loop time of 144.672 on 4 procs for 50000 steps with 864 atoms

unfix temp
unfix out_file_1
# unfix 1
# # clear
write_data after_heating_$T.in
write_data after_heating_1500.in
System init for write_data ...
Last active /omp style is pair_style eam/alloy/omp
write_restart after_heating_$T.lmp
write_restart after_heating_1500.lmp
System init for write_restart ...
Last active /omp style is pair_style eam/alloy/omp
next loopVar
# # # thermo_modify flush yes
jump in.lmp ensemble

print """
Hi HI Hi
# """

Hi HI Hi
#
variable T equal 200+14*100
# variable T equal 1200
# velocity all create 1200 123123
reset_timestep 0
fix 1 all npt temp $T $T $(dt*100) iso 0 0 $(dt*1000)
fix 1 all npt temp 1600 $T $(dt*100) iso 0 0 $(dt*1000)
fix 1 all npt temp 1600 1600 $(dt*100) iso 0 0 $(dt*1000)
fix 1 all npt temp 1600 1600 0.10000000000000000555 iso 0 0 $(dt*1000)
fix 1 all npt temp 1600 1600 0.10000000000000000555 iso 0 0 1
print """
<--------------------------------------------------------------------->
<------------------ Equilibrating at temperature $T ----------------->
<--------------------------------------------------------------------->
"""

<--------------------------------------------------------------------->
<------------------ Equilibrating at temperature 1600 ----------------->
<--------------------------------------------------------------------->

run 250000
Last active /omp style is pair_style eam/alloy/omp
Step Temp Volume Press KinEng PotEng Density
0    1530.2727    10300.838    230.78749    170.70422   -3615.5457    8.2082164
Averages over the last 126 of 251 rows, steps 125000 to 250000:
Temp Volume Press KinEng PotEng Density
1602.12 10351.6 -203.958 178.719 -3601.14 8.16814
Loop time of 722.349 on 4 procs for 250000 steps with 864 atoms

# fix 132 all momentum 100 linear 1 1 1 angular

# dump 3 all custom 1000 traj_npt_new.lammpstrj id type x y z
run 50000
Last active /omp style is pair_style eam/alloy/omp
Step Temp Volume Press KinEng PotEng Density
250000    1602.9771     10339.54    3249.7553    178.81451   -3597.9049    8.1774924
Averages over the last 26 of 51 rows, steps 275000 to 300000:
Temp Volume Press KinEng PotEng Density
1601.07 10351.3 8.42089 178.602 -3600.88 8.16834
Loop time of 145.488 on 4 procs for 50000 steps with 864 atoms

unfix temp
unfix out_file_1
# unfix 1
# # clear
write_data after_heating_$T.in
write_data after_heating_1600.in
System init for write_data ...
Last active /omp style is pair_style eam/alloy/omp
write_restart after_heating_$T.lmp
write_restart after_heating_1600.lmp
System init for write_restart ...
Last active /omp style is pair_style eam/alloy/omp
next loopVar
# # # thermo_modify flush yes
jump in.lmp ensemble

print """
Hi HI Hi
# """

Hi HI Hi
#
variable T equal 200+15*100
# variable T equal 1200
# velocity all create 1200 123123
reset_timestep 0
fix 1 all npt temp $T $T $(dt*100) iso 0 0 $(dt*1000)
fix 1 all npt temp 1700 $T $(dt*100) iso 0 0 $(dt*1000)
fix 1 all npt temp 1700 1700 $(dt*100) iso 0 0 $(dt*1000)
fix 1 all npt temp 1700 1700 0.10000000000000000555 iso 0 0 $(dt*1000)
fix 1 all npt temp 1700 1700 0.10000000000000000555 iso 0 0 1
print """
<--------------------------------------------------------------------->
<------------------ Equilibrating at temperature $T ----------------->
<--------------------------------------------------------------------->
"""

<--------------------------------------------------------------------->
<------------------ Equilibrating at temperature 1700 ----------------->
<--------------------------------------------------------------------->

run 250000
Last active /omp style is pair_style eam/alloy/omp
Step Temp Volume Press KinEng PotEng Density
0    1597.7387    10399.524   -8239.3313    178.23016   -3600.7953     8.130325
Averages over the last 126 of 251 rows, steps 125000 to 250000:
Temp Volume Press KinEng PotEng Density
1699.17 10407.7 20.3199 189.545 -3584.52 8.12413
Loop time of 736.856 on 4 procs for 250000 steps with 864 atoms

# fix 132 all momentum 100 linear 1 1 1 angular

# dump 3 all custom 1000 traj_npt_new.lammpstrj id type x y z
run 50000
Last active /omp style is pair_style eam/alloy/omp
Step Temp Volume Press KinEng PotEng Density
250000    1671.0075    10467.931   -4004.7188     186.4034   -3573.5495     8.077194
Averages over the last 26 of 51 rows, steps 275000 to 300000:
Temp Volume Press KinEng PotEng Density
1703.43 10404.3 -24.0533 190.021 -3585.54 8.12669
Loop time of 148.432 on 4 procs for 50000 steps with 864 atoms

unfix temp
unfix out_file_1
# unfix 1
# # clear
write_data after_heating_$T.in
write_data after_heating_1700.in
System init for write_data ...
Last active /omp style is pair_style eam/alloy/omp
write_restart after_heating_$T.lmp
write_restart after_heating_1700.lmp
System init for write_restart ...
Last active /omp style is pair_style eam/alloy/omp
next loopVar
# # # thermo_modify flush yes
jump in.lmp ensemble

print """
Hi HI Hi
# """

Hi HI Hi
#
variable T equal 200+16*100
# variable T equal 1200
# velocity all create 1200 123123
reset_timestep 0
fix 1 all npt temp $T $T $(dt*100) iso 0 0 $(dt*1000)
fix 1 all npt temp 1800 $T $(dt*100) iso 0 0 $(dt*1000)
fix 1 all npt temp 1800 1800 $(dt*100) iso 0 0 $(dt*1000)
fix 1 all npt temp 1800 1800 0.10000000000000000555 iso 0 0 $(dt*1000)
fix 1 all npt temp 1800 1800 0.10000000000000000555 iso 0 0 1
print """
<--------------------------------------------------------------------->
<------------------ Equilibrating at temperature $T ----------------->
<--------------------------------------------------------------------->
"""

<--------------------------------------------------------------------->
<------------------ Equilibrating at temperature 1800 ----------------->
<--------------------------------------------------------------------->

run 250000
Last active /omp style is pair_style eam/alloy/omp
Step Temp Volume Press KinEng PotEng Density
0    1779.9897    10429.671   -6353.6838    198.56053    -3589.591    8.1068237
Averages over the last 126 of 251 rows, steps 125000 to 250000:
Temp Volume Press KinEng PotEng Density
1790.71 10460 414.898 199.756 -3568.74 8.08349
Loop time of 729.366 on 4 procs for 250000 steps with 864 atoms

# fix 132 all momentum 100 linear 1 1 1 angular

# dump 3 all custom 1000 traj_npt_new.lammpstrj id type x y z
run 50000
Last active /omp style is pair_style eam/alloy/omp
Step Temp Volume Press KinEng PotEng Density
250000     1831.295    10409.071    10980.288    204.28372   -3564.8877    8.1228673
Averages over the last 26 of 51 rows, steps 275000 to 300000:
Temp Volume Press KinEng PotEng Density
1797.51 10461.8 -229.111 200.515 -3569.87 8.0821
Loop time of 148.116 on 4 procs for 50000 steps with 864 atoms

unfix temp
unfix out_file_1
# unfix 1
# # clear
write_data after_heating_$T.in
write_data after_heating_1800.in
System init for write_data ...
Last active /omp style is pair_style eam/alloy/omp
write_restart after_heating_$T.lmp
write_restart after_heating_1800.lmp
System init for write_restart ...
Last active /omp style is pair_style eam/alloy/omp
next loopVar
# # # thermo_modify flush yes
jump in.lmp ensemble

print """
Hi HI Hi
# """

Hi HI Hi
#
variable T equal 200+17*100
# variable T equal 1200
# velocity all create 1200 123123
reset_timestep 0
fix 1 all npt temp $T $T $(dt*100) iso 0 0 $(dt*1000)
fix 1 all npt temp 1900 $T $(dt*100) iso 0 0 $(dt*1000)
fix 1 all npt temp 1900 1900 $(dt*100) iso 0 0 $(dt*1000)
fix 1 all npt temp 1900 1900 0.10000000000000000555 iso 0 0 $(dt*1000)
fix 1 all npt temp 1900 1900 0.10000000000000000555 iso 0 0 1
print """
<--------------------------------------------------------------------->
<------------------ Equilibrating at temperature $T ----------------->
<--------------------------------------------------------------------->
"""

<--------------------------------------------------------------------->
<------------------ Equilibrating at temperature 1900 ----------------->
<--------------------------------------------------------------------->

run 250000
Last active /omp style is pair_style eam/alloy/omp
Step Temp Volume Press KinEng PotEng Density
0    1846.6892    10481.414    755.73534    206.00096   -3562.7101    8.0668034
Averages over the last 126 of 251 rows, steps 125000 to 250000:
Temp Volume Press KinEng PotEng Density
1902.55 10526.8 -13.7846 212.232 -3550.65 8.03221
Loop time of 729.325 on 4 procs for 250000 steps with 864 atoms

# fix 132 all momentum 100 linear 1 1 1 angular

# dump 3 all custom 1000 traj_npt_new.lammpstrj id type x y z
run 50000
Last active /omp style is pair_style eam/alloy/omp
Step Temp Volume Press KinEng PotEng Density
250000    1934.8674    10582.297   -8880.0146    215.83737   -3552.6077    7.9899013
Averages over the last 26 of 51 rows, steps 275000 to 300000:
Temp Volume Press KinEng PotEng Density
1897.53 10523.8 -465.998 211.673 -3552.58 8.0344
Loop time of 154.41 on 4 procs for 50000 steps with 864 atoms

unfix temp
unfix out_file_1
# unfix 1
# # clear
write_data after_heating_$T.in
write_data after_heating_1900.in
System init for write_data ...
Last active /omp style is pair_style eam/alloy/omp
write_restart after_heating_$T.lmp
write_restart after_heating_1900.lmp
System init for write_restart ...
Last active /omp style is pair_style eam/alloy/omp
next loopVar
# # # thermo_modify flush yes
jump in.lmp ensemble

print """
Hi HI Hi
# """

Hi HI Hi
#
variable T equal 200+18*100
# variable T equal 1200
# velocity all create 1200 123123
reset_timestep 0
fix 1 all npt temp $T $T $(dt*100) iso 0 0 $(dt*1000)
fix 1 all npt temp 2000 $T $(dt*100) iso 0 0 $(dt*1000)
fix 1 all npt temp 2000 2000 $(dt*100) iso 0 0 $(dt*1000)
fix 1 all npt temp 2000 2000 0.10000000000000000555 iso 0 0 $(dt*1000)
fix 1 all npt temp 2000 2000 0.10000000000000000555 iso 0 0 1
print """
<--------------------------------------------------------------------->
<------------------ Equilibrating at temperature $T ----------------->
<--------------------------------------------------------------------->
"""

<--------------------------------------------------------------------->
<------------------ Equilibrating at temperature 2000 ----------------->
<--------------------------------------------------------------------->

run 250000
Last active /omp style is pair_style eam/alloy/omp
Step Temp Volume Press KinEng PotEng Density
0    1790.9748    10538.952   -8174.1811    199.78594    -3562.117    8.0227625
Averages over the last 126 of 251 rows, steps 125000 to 250000:
Temp Volume Press KinEng PotEng Density
1998.57 10588 381.29 222.943 -3532.7 7.98577
Loop time of 752.844 on 4 procs for 250000 steps with 864 atoms

# fix 132 all momentum 100 linear 1 1 1 angular

# dump 3 all custom 1000 traj_npt_new.lammpstrj id type x y z
run 50000
Last active /omp style is pair_style eam/alloy/omp
Step Temp Volume Press KinEng PotEng Density
250000    2048.7124    10554.208    3263.6939    228.53695   -3539.6588    8.0111655
Averages over the last 26 of 51 rows, steps 275000 to 300000:
Temp Volume Press KinEng PotEng Density
2003.52 10598.4 -558.707 223.495 -3531.47 7.97796
Loop time of 145.458 on 4 procs for 50000 steps with 864 atoms

unfix temp
unfix out_file_1
# unfix 1
# # clear
write_data after_heating_$T.in
write_data after_heating_2000.in
System init for write_data ...
Last active /omp style is pair_style eam/alloy/omp
write_restart after_heating_$T.lmp
write_restart after_heating_2000.lmp
System init for write_restart ...
Last active /omp style is pair_style eam/alloy/omp
next loopVar
# # # thermo_modify flush yes
jump in.lmp ensemble

print """
Hi HI Hi
# """

Hi HI Hi
#
variable T equal 200+19*100
# variable T equal 1200
# velocity all create 1200 123123
reset_timestep 0
fix 1 all npt temp $T $T $(dt*100) iso 0 0 $(dt*1000)
fix 1 all npt temp 2100 $T $(dt*100) iso 0 0 $(dt*1000)
fix 1 all npt temp 2100 2100 $(dt*100) iso 0 0 $(dt*1000)
fix 1 all npt temp 2100 2100 0.10000000000000000555 iso 0 0 $(dt*1000)
fix 1 all npt temp 2100 2100 0.10000000000000000555 iso 0 0 1
print """
<--------------------------------------------------------------------->
<------------------ Equilibrating at temperature $T ----------------->
<--------------------------------------------------------------------->
"""

<--------------------------------------------------------------------->
<------------------ Equilibrating at temperature 2100 ----------------->
<--------------------------------------------------------------------->

run 250000
Last active /omp style is pair_style eam/alloy/omp
Step Temp Volume Press KinEng PotEng Density
0    2078.4518    10616.343   -3359.1203    231.85442   -3533.8307    7.9642782
Averages over the last 126 of 251 rows, steps 125000 to 250000:
Temp Volume Press KinEng PotEng Density
2104.06 10662.1 16.9791 234.712 -3512.93 7.93029
Loop time of 714.057 on 4 procs for 250000 steps with 864 atoms

# fix 132 all momentum 100 linear 1 1 1 angular

# dump 3 all custom 1000 traj_npt_new.lammpstrj id type x y z
run 50000
Last active /omp style is pair_style eam/alloy/omp
Step Temp Volume Press KinEng PotEng Density
250000     2157.363     10664.61   -5702.7241    240.65709   -3524.8593    7.9282323
Averages over the last 26 of 51 rows, steps 275000 to 300000:
Temp Volume Press KinEng PotEng Density
2118.16 10671.9 -1451.84 236.284 -3513.26 7.92306
Loop time of 145.698 on 4 procs for 50000 steps with 864 atoms

unfix temp
unfix out_file_1
# unfix 1
# # clear
write_data after_heating_$T.in
write_data after_heating_2100.in
System init for write_data ...
Last active /omp style is pair_style eam/alloy/omp
write_restart after_heating_$T.lmp
write_restart after_heating_2100.lmp
System init for write_restart ...
Last active /omp style is pair_style eam/alloy/omp
next loopVar
# # # thermo_modify flush yes
jump in.lmp ensemble

print """
Hi HI Hi
# """

Hi HI Hi
#
variable T equal 200+20*100
# variable T equal 1200
# velocity all create 1200 123123
reset_timestep 0
fix 1 all npt temp $T $T $(dt*100) iso 0 0 $(dt*1000)
fix 1 all npt temp 2200 $T $(dt*100) iso 0 0 $(dt*1000)
fix 1 all npt temp 2200 2200 $(dt*100) iso 0 0 $(dt*1000)
fix 1 all npt temp 2200 2200 0.10000000000000000555 iso 0 0 $(dt*1000)
fix 1 all npt temp 2200 2200 0.10000000000000000555 iso 0 0 1
print """
<--------------------------------------------------------------------->
<------------------ Equilibrating at temperature $T ----------------->
<--------------------------------------------------------------------->
"""

<--------------------------------------------------------------------->
<------------------ Equilibrating at temperature 2200 ----------------->
<--------------------------------------------------------------------->

run 250000
Last active /omp style is pair_style eam/alloy/omp
Step Temp Volume Press KinEng PotEng Density
0    2096.9944    10657.584   -6774.6664    233.92288   -3530.0383    7.9334593
Averages over the last 126 of 251 rows, steps 125000 to 250000:
Temp Volume Press KinEng PotEng Density
2208.6 11221.5 -243.503 246.373 -3362.97 7.53501
Loop time of 686.02 on 4 procs for 250000 steps with 864 atoms

# fix 132 all momentum 100 linear 1 1 1 angular

# dump 3 all custom 1000 traj_npt_new.lammpstrj id type x y z
run 50000
Last active /omp style is pair_style eam/alloy/omp
Step Temp Volume Press KinEng PotEng Density
250000    2200.4103    11252.959   -7129.7812    245.45908   -3366.6595    7.5137132
Averages over the last 26 of 51 rows, steps 275000 to 300000:
Temp Volume Press KinEng PotEng Density
2200.6 11218.1 2021.3 245.48 -3360.01 7.53731
Loop time of 137.703 on 4 procs for 50000 steps with 864 atoms

unfix temp
unfix out_file_1
# unfix 1
# # clear
write_data after_heating_$T.in
write_data after_heating_2200.in
System init for write_data ...
Last active /omp style is pair_style eam/alloy/omp
write_restart after_heating_$T.lmp
write_restart after_heating_2200.lmp
System init for write_restart ...
Last active /omp style is pair_style eam/alloy/omp
next loopVar
# # # thermo_modify flush yes
jump in.lmp ensemble

print """
Hi HI Hi
# """

Hi HI Hi
#
variable T equal 200+21*100
# variable T equal 1200
# velocity all create 1200 123123
reset_timestep 0
fix 1 all npt temp $T $T $(dt*100) iso 0 0 $(dt*1000)
fix 1 all npt temp 2300 $T $(dt*100) iso 0 0 $(dt*1000)
fix 1 all npt temp 2300 2300 $(dt*100) iso 0 0 $(dt*1000)
fix 1 all npt temp 2300 2300 0.10000000000000000555 iso 0 0 $(dt*1000)
fix 1 all npt temp 2300 2300 0.10000000000000000555 iso 0 0 1
print """
<--------------------------------------------------------------------->
<------------------ Equilibrating at temperature $T ----------------->
<--------------------------------------------------------------------->
"""

<--------------------------------------------------------------------->
<------------------ Equilibrating at temperature 2300 ----------------->
<--------------------------------------------------------------------->

run 250000
Last active /omp style is pair_style eam/alloy/omp
Loop time of 788.516 on 4 procs for 250000 steps with 864 atoms

# fix 132 all momentum 100 linear 1 1 1 angular

# dump 3 all custom 1000 traj_npt_new.lammpstrj id type x y z
run 50000
Last active /omp style is pair_style eam/alloy/omp
Loop time of 162.914 on 4 procs for 50000 steps with 864 atoms

unfix temp
unfix out_file_1
# unfix 1
# # clear
write_data after_heating_$T.in
write_data after_heating_2300.in
System init for write_data ...
Last active /omp style is pair_style eam/alloy/omp
write_restart after_heating_$T.lmp
write_restart after_heating_2300.lmp
System init for write_restart ...
Last active /omp style is pair_style eam/alloy/omp
next loopVar
# # # thermo_modify flush yes
jump in.lmp ensemble

print """
Hi HI Hi
# """

Hi HI Hi
#
variable T equal 200+22*100
# variable T equal 1200
# velocity all create 1200 123123
reset_timestep 0
fix 1 all npt temp $T $T $(dt*100) iso 0 0 $(dt*1000)
fix 1 all npt temp 2400 $T $(dt*100) iso 0 0 $(dt*1000)
fix 1 all npt temp 2400 2400 $(dt*100) iso 0 0 $(dt*1000)
fix 1 all npt temp 2400 2400 0.10000000000000000555 iso 0 0 $(dt*1000)
fix 1 all npt temp 2400 2400 0.10000000000000000555 iso 0 0 1
print """
<--------------------------------------------------------------------->
<------------------ Equilibrating at temperature $T ----------------->
<--------------------------------------------------------------------->
"""

<--------------------------------------------------------------------->
<------------------ Equilibrating at temperature 2400 ----------------->
<--------------------------------------------------------------------->

run 250000
Last active /omp style is pair_style eam/alloy/omp
Loop time of 762.746 on 4 procs for 250000 steps with 864 atoms

# fix 132 all momentum 100 linear 1 1 1 angular

# dump 3 all custom 1000 traj_npt_new.lammpstrj id type x y z
run 50000
Last active /omp style is pair_style eam/alloy/omp
Loop time of 150.131 on 4 procs for 50000 steps with 864 atoms

unfix temp
unfix out_file_1
# unfix 1
# # clear
write_data after_heating_$T.in
write_data after_heating_2400.in
System init for write_data ...
Last active /omp style is pair_style eam/alloy/omp
write_restart after_heating_$T.lmp
write_restart after_heating_2400.lmp
System init for write_restart ...
Last active /omp style is pair_style eam/alloy/omp
next loopVar
# # # thermo_modify flush yes
jump in.lmp ensemble

# write_data after_cooling_$T_.in
# write_restart after_cooling_$T.lmp
