LAMMPS (29 Oct 2020)
package omp 0
using multi-threaded neighbor list subroutines
package omp 2
set 2 OpenMP thread(s) per MPI task
using multi-threaded neighbor list subroutines
units metal  #<----->
dimension 3
boundary p p p

lattice fcc 3.5440
Lattice spacing in x,y,z = 3.5440000 3.5440000 3.5440000
region box block 0 8 0 8 0 8 units lattice
create_box 1 box
Created orthogonal box = (0.0000000 0.0000000 0.0000000) to (28.352000 28.352000 28.352000)
create_atoms 1 box
Created 2048 atoms

# read_restart after_heating_press_800000_5000.lmp  #<----->
# read_restart after_cooling_press_800000_2700.lmp

variable P equal 1000000     #<----->
variable dt equal 0.001
variable loopVar loop 6
variable sys_press equal "press/10000"

variable sim string "heating"  #<----->
# variable sim string "cooling"

pair_style eam/alloy
pair_coeff * * Co_Zhou04.eam.alloy Co
Reading eam/alloy potential file Co_Zhou04.eam.alloy with DATE: 2018-03-30

neighbor 2 bin
neigh_modify every 10 check yes

thermo 1000
thermo_style custom step temp vol press ke pe density

timestep $(dt)
timestep 0.0010000000000000000208

velocity all create 4900 123123 #<----->

print """
yo aagadi
"""

yo aagadi

label ensemble

print """
Label pachadi solti, hos garam.
"""

Label pachadi solti, hos garam.

variable T equal 4800+1*100
# variable T equal 2750

reset_timestep 0
fix 1 all npt temp $T $T $(dt*100) iso $P $P $(dt*1000)
fix 1 all npt temp 4900 $T $(dt*100) iso $P $P $(dt*1000)
fix 1 all npt temp 4900 4900 $(dt*100) iso $P $P $(dt*1000)
fix 1 all npt temp 4900 4900 0.10000000000000000555 iso $P $P $(dt*1000)
fix 1 all npt temp 4900 4900 0.10000000000000000555 iso 1000000 $P $(dt*1000)
fix 1 all npt temp 4900 4900 0.10000000000000000555 iso 1000000 1000000 $(dt*1000)
fix 1 all npt temp 4900 4900 0.10000000000000000555 iso 1000000 1000000 1
print """
<--------------------------------------------------------------------->
<------------------ Equilibrating at temperature $T ----------------->
<--------------------------------------------------------------------->
"""

<--------------------------------------------------------------------->
<------------------ Equilibrating at temperature 4900 ----------------->
<--------------------------------------------------------------------->

run 250000
Last active /omp style is pair_style eam/alloy/omp
  update every 10 steps, delay 10 steps, check yes
Step Temp Volume Press KinEng PotEng Density
0         4900    22790.356    68444.236     1296.518    -9015.757        8.794
Averages over the last 126 of 251 rows, steps 125000 to 250000:
Temp Volume Press KinEng PotEng Density
4911.69 18435.8 999422 1299.61 -6909.7 10.8712
Loop time of 569.815 on 8 procs for 250000 steps with 2048 atoms

# fix 132 all momentum 100 linear 1 1 1 angular

# dump 3 all custom 1000 traj_npt_new.lammpstrj id type x y z
run 50000
Last active /omp style is pair_style eam/alloy/omp
Step Temp Volume Press KinEng PotEng Density
250000    4978.6612    18438.731    1000587.9    1317.3314   -6904.5862    10.869424
Averages over the last 26 of 51 rows, steps 275000 to 300000:
Temp Volume Press KinEng PotEng Density
4922.92 18430.4 999939 1302.58 -6912.93 10.8744
Loop time of 117.629 on 8 procs for 50000 steps with 2048 atoms

unfix temp
unfix out_file_1

write_data after_heating_press_$P_$T.in
write_data after_heating_press_1000000_$T.in
write_data after_heating_press_1000000_4900.in
System init for write_data ...
Last active /omp style is pair_style eam/alloy/omp
write_restart after_heating_press_$P_$T.lmp
write_restart after_heating_press_1000000_$T.lmp
write_restart after_heating_press_1000000_4900.lmp
System init for write_restart ...
Last active /omp style is pair_style eam/alloy/omp

next loopVar  #<----->
jump in.lmp ensemble

print """
Label pachadi solti, hos garam.
"""

Label pachadi solti, hos garam.

variable T equal 4800+2*100
# variable T equal 2750

reset_timestep 0
fix 1 all npt temp $T $T $(dt*100) iso $P $P $(dt*1000)
fix 1 all npt temp 5000 $T $(dt*100) iso $P $P $(dt*1000)
fix 1 all npt temp 5000 5000 $(dt*100) iso $P $P $(dt*1000)
fix 1 all npt temp 5000 5000 0.10000000000000000555 iso $P $P $(dt*1000)
fix 1 all npt temp 5000 5000 0.10000000000000000555 iso 1000000 $P $(dt*1000)
fix 1 all npt temp 5000 5000 0.10000000000000000555 iso 1000000 1000000 $(dt*1000)
fix 1 all npt temp 5000 5000 0.10000000000000000555 iso 1000000 1000000 1
print """
<--------------------------------------------------------------------->
<------------------ Equilibrating at temperature $T ----------------->
<--------------------------------------------------------------------->
"""

<--------------------------------------------------------------------->
<------------------ Equilibrating at temperature 5000 ----------------->
<--------------------------------------------------------------------->

run 250000
Last active /omp style is pair_style eam/alloy/omp
Step Temp Volume Press KinEng PotEng Density
0    4772.3787    18566.696    972358.61      1262.75   -6921.2139     10.79451
Averages over the last 126 of 251 rows, steps 125000 to 250000:
Temp Volume Press KinEng PotEng Density
5011.33 18741.5 1.00005e+06 1325.98 -6655.12 10.6949
Loop time of 634.031 on 8 procs for 250000 steps with 2048 atoms

# fix 132 all momentum 100 linear 1 1 1 angular

# dump 3 all custom 1000 traj_npt_new.lammpstrj id type x y z
run 50000
Last active /omp style is pair_style eam/alloy/omp
Step Temp Volume Press KinEng PotEng Density
250000    4978.8982    18926.981    979549.54    1317.3941   -6602.8548    10.589031
Averages over the last 26 of 51 rows, steps 275000 to 300000:
Temp Volume Press KinEng PotEng Density
4978.37 18875.7 998758 1317.26 -6546.32 10.6179
Loop time of 119.348 on 8 procs for 50000 steps with 2048 atoms

unfix temp
unfix out_file_1

write_data after_heating_press_$P_$T.in
write_data after_heating_press_1000000_$T.in
write_data after_heating_press_1000000_5000.in
System init for write_data ...
Last active /omp style is pair_style eam/alloy/omp
write_restart after_heating_press_$P_$T.lmp
write_restart after_heating_press_1000000_$T.lmp
write_restart after_heating_press_1000000_5000.lmp
System init for write_restart ...
Last active /omp style is pair_style eam/alloy/omp

next loopVar  #<----->
jump in.lmp ensemble

print """
Label pachadi solti, hos garam.
"""

Label pachadi solti, hos garam.

variable T equal 4800+3*100
# variable T equal 2750

reset_timestep 0
fix 1 all npt temp $T $T $(dt*100) iso $P $P $(dt*1000)
fix 1 all npt temp 5100 $T $(dt*100) iso $P $P $(dt*1000)
fix 1 all npt temp 5100 5100 $(dt*100) iso $P $P $(dt*1000)
fix 1 all npt temp 5100 5100 0.10000000000000000555 iso $P $P $(dt*1000)
fix 1 all npt temp 5100 5100 0.10000000000000000555 iso 1000000 $P $(dt*1000)
fix 1 all npt temp 5100 5100 0.10000000000000000555 iso 1000000 1000000 $(dt*1000)
fix 1 all npt temp 5100 5100 0.10000000000000000555 iso 1000000 1000000 1
print """
<--------------------------------------------------------------------->
<------------------ Equilibrating at temperature $T ----------------->
<--------------------------------------------------------------------->
"""

<--------------------------------------------------------------------->
<------------------ Equilibrating at temperature 5100 ----------------->
<--------------------------------------------------------------------->

run 250000
Last active /omp style is pair_style eam/alloy/omp
Step Temp Volume Press KinEng PotEng Density
0    4944.7911    18864.549     999140.5    1308.3696    -6554.436    10.624075
Averages over the last 126 of 251 rows, steps 125000 to 250000:
Temp Volume Press KinEng PotEng Density
5096.83 18898.4 999647 1348.6 -6531.39 10.6051
Loop time of 596.949 on 8 procs for 250000 steps with 2048 atoms

# fix 132 all momentum 100 linear 1 1 1 angular

# dump 3 all custom 1000 traj_npt_new.lammpstrj id type x y z
run 50000
Last active /omp style is pair_style eam/alloy/omp
Step Temp Volume Press KinEng PotEng Density
250000     5034.427    18820.161    1016871.3    1332.0868   -6500.7964    10.649133
Averages over the last 26 of 51 rows, steps 275000 to 300000:
Temp Volume Press KinEng PotEng Density
5111.76 18899.3 999945 1352.55 -6529.48 10.6046
Loop time of 117.922 on 8 procs for 50000 steps with 2048 atoms

unfix temp
unfix out_file_1

write_data after_heating_press_$P_$T.in
write_data after_heating_press_1000000_$T.in
write_data after_heating_press_1000000_5100.in
System init for write_data ...
Last active /omp style is pair_style eam/alloy/omp
write_restart after_heating_press_$P_$T.lmp
write_restart after_heating_press_1000000_$T.lmp
write_restart after_heating_press_1000000_5100.lmp
System init for write_restart ...
Last active /omp style is pair_style eam/alloy/omp

next loopVar  #<----->
jump in.lmp ensemble

print """
Label pachadi solti, hos garam.
"""

Label pachadi solti, hos garam.

variable T equal 4800+4*100
# variable T equal 2750

reset_timestep 0
fix 1 all npt temp $T $T $(dt*100) iso $P $P $(dt*1000)
fix 1 all npt temp 5200 $T $(dt*100) iso $P $P $(dt*1000)
fix 1 all npt temp 5200 5200 $(dt*100) iso $P $P $(dt*1000)
fix 1 all npt temp 5200 5200 0.10000000000000000555 iso $P $P $(dt*1000)
fix 1 all npt temp 5200 5200 0.10000000000000000555 iso 1000000 $P $(dt*1000)
fix 1 all npt temp 5200 5200 0.10000000000000000555 iso 1000000 1000000 $(dt*1000)
fix 1 all npt temp 5200 5200 0.10000000000000000555 iso 1000000 1000000 1
print """
<--------------------------------------------------------------------->
<------------------ Equilibrating at temperature $T ----------------->
<--------------------------------------------------------------------->
"""

<--------------------------------------------------------------------->
<------------------ Equilibrating at temperature 5200 ----------------->
<--------------------------------------------------------------------->

run 250000
Last active /omp style is pair_style eam/alloy/omp
Step Temp Volume Press KinEng PotEng Density
0    5248.0952    18836.841    1017323.4    1388.6225   -6496.0323    10.639703
Averages over the last 126 of 251 rows, steps 125000 to 250000:
Temp Volume Press KinEng PotEng Density
5208.56 18924.6 1.00065e+06 1378.16 -6513.33 10.5904
Loop time of 587.227 on 8 procs for 250000 steps with 2048 atoms

# fix 132 all momentum 100 linear 1 1 1 angular

# dump 3 all custom 1000 traj_npt_new.lammpstrj id type x y z
run 50000
Last active /omp style is pair_style eam/alloy/omp
Step Temp Volume Press KinEng PotEng Density
250000     5180.733    18925.331    998136.35    1370.7987   -6530.1741    10.589954
Averages over the last 26 of 51 rows, steps 275000 to 300000:
Temp Volume Press KinEng PotEng Density
5190.79 18923.2 1.00178e+06 1373.46 -6508.19 10.5912
Loop time of 138.541 on 8 procs for 50000 steps with 2048 atoms

unfix temp
unfix out_file_1

write_data after_heating_press_$P_$T.in
write_data after_heating_press_1000000_$T.in
write_data after_heating_press_1000000_5200.in
System init for write_data ...
Last active /omp style is pair_style eam/alloy/omp
write_restart after_heating_press_$P_$T.lmp
write_restart after_heating_press_1000000_$T.lmp
write_restart after_heating_press_1000000_5200.lmp
System init for write_restart ...
Last active /omp style is pair_style eam/alloy/omp

next loopVar  #<----->
jump in.lmp ensemble

print """
Label pachadi solti, hos garam.
"""

Label pachadi solti, hos garam.

variable T equal 4800+5*100
# variable T equal 2750

reset_timestep 0
fix 1 all npt temp $T $T $(dt*100) iso $P $P $(dt*1000)
fix 1 all npt temp 5300 $T $(dt*100) iso $P $P $(dt*1000)
fix 1 all npt temp 5300 5300 $(dt*100) iso $P $P $(dt*1000)
fix 1 all npt temp 5300 5300 0.10000000000000000555 iso $P $P $(dt*1000)
fix 1 all npt temp 5300 5300 0.10000000000000000555 iso 1000000 $P $(dt*1000)
fix 1 all npt temp 5300 5300 0.10000000000000000555 iso 1000000 1000000 $(dt*1000)
fix 1 all npt temp 5300 5300 0.10000000000000000555 iso 1000000 1000000 1
print """
<--------------------------------------------------------------------->
<------------------ Equilibrating at temperature $T ----------------->
<--------------------------------------------------------------------->
"""

<--------------------------------------------------------------------->
<------------------ Equilibrating at temperature 5300 ----------------->
<--------------------------------------------------------------------->

run 250000
Last active /omp style is pair_style eam/alloy/omp
Step Temp Volume Press KinEng PotEng Density
0    5267.9505     18883.11      1007904    1393.8761   -6515.0732    10.613632
Averages over the last 126 of 251 rows, steps 125000 to 250000:
Temp Volume Press KinEng PotEng Density
5303.44 18960.5 999179 1403.27 -6498.75 10.5704
Loop time of 600.424 on 8 procs for 250000 steps with 2048 atoms

# fix 132 all momentum 100 linear 1 1 1 angular

# dump 3 all custom 1000 traj_npt_new.lammpstrj id type x y z
run 50000
Last active /omp style is pair_style eam/alloy/omp
Step Temp Volume Press KinEng PotEng Density
250000    5230.7759    18852.254    1021083.9    1384.0399   -6467.2776    10.631004
Averages over the last 26 of 51 rows, steps 275000 to 300000:
Temp Volume Press KinEng PotEng Density
5283.42 18952.8 1.00092e+06 1397.97 -6495.16 10.5747
Loop time of 119.879 on 8 procs for 50000 steps with 2048 atoms

unfix temp
unfix out_file_1

write_data after_heating_press_$P_$T.in
write_data after_heating_press_1000000_$T.in
write_data after_heating_press_1000000_5300.in
System init for write_data ...
Last active /omp style is pair_style eam/alloy/omp
write_restart after_heating_press_$P_$T.lmp
write_restart after_heating_press_1000000_$T.lmp
write_restart after_heating_press_1000000_5300.lmp
System init for write_restart ...
Last active /omp style is pair_style eam/alloy/omp

next loopVar  #<----->
jump in.lmp ensemble

print """
Label pachadi solti, hos garam.
"""

Label pachadi solti, hos garam.

variable T equal 4800+6*100
# variable T equal 2750

reset_timestep 0
fix 1 all npt temp $T $T $(dt*100) iso $P $P $(dt*1000)
fix 1 all npt temp 5400 $T $(dt*100) iso $P $P $(dt*1000)
fix 1 all npt temp 5400 5400 $(dt*100) iso $P $P $(dt*1000)
fix 1 all npt temp 5400 5400 0.10000000000000000555 iso $P $P $(dt*1000)
fix 1 all npt temp 5400 5400 0.10000000000000000555 iso 1000000 $P $(dt*1000)
fix 1 all npt temp 5400 5400 0.10000000000000000555 iso 1000000 1000000 $(dt*1000)
fix 1 all npt temp 5400 5400 0.10000000000000000555 iso 1000000 1000000 1
print """
<--------------------------------------------------------------------->
<------------------ Equilibrating at temperature $T ----------------->
<--------------------------------------------------------------------->
"""

<--------------------------------------------------------------------->
<------------------ Equilibrating at temperature 5400 ----------------->
<--------------------------------------------------------------------->

run 250000
Last active /omp style is pair_style eam/alloy/omp
Step Temp Volume Press KinEng PotEng Density
0    5289.8327    18929.744    1003799.3     1399.666    -6494.625    10.587485
Averages over the last 126 of 251 rows, steps 125000 to 250000:
Temp Volume Press KinEng PotEng Density
5411.47 18984.6 999752 1431.85 -6484.07 10.557
Loop time of 593.279 on 8 procs for 250000 steps with 2048 atoms

# fix 132 all momentum 100 linear 1 1 1 angular

# dump 3 all custom 1000 traj_npt_new.lammpstrj id type x y z
run 50000
Last active /omp style is pair_style eam/alloy/omp
Step Temp Volume Press KinEng PotEng Density
250000    5550.9131    18939.629      1001471    1468.7467   -6529.1444    10.581959
Averages over the last 26 of 51 rows, steps 275000 to 300000:
Temp Volume Press KinEng PotEng Density
5423.97 18992.3 999193 1435.16 -6483 10.5527
Loop time of 122.703 on 8 procs for 50000 steps with 2048 atoms

unfix temp
unfix out_file_1

write_data after_heating_press_$P_$T.in
write_data after_heating_press_1000000_$T.in
write_data after_heating_press_1000000_5400.in
System init for write_data ...
Last active /omp style is pair_style eam/alloy/omp
write_restart after_heating_press_$P_$T.lmp
write_restart after_heating_press_1000000_$T.lmp
write_restart after_heating_press_1000000_5400.lmp
System init for write_restart ...
Last active /omp style is pair_style eam/alloy/omp

next loopVar  #<----->
jump in.lmp ensemble
