LAMMPS (29 Oct 2020)
package omp 0
using multi-threaded neighbor list subroutines
package omp 2
set 2 OpenMP thread(s) per MPI task
using multi-threaded neighbor list subroutines
units metal  #<----->
dimension 3
boundary p p p

lattice fcc 3.5440
Lattice spacing in x,y,z = 3.5440000 3.5440000 3.5440000
region box block 0 8 0 8 0 8 units lattice
create_box 1 box
Created orthogonal box = (0.0000000 0.0000000 0.0000000) to (28.352000 28.352000 28.352000)
create_atoms 1 box
Created 2048 atoms

# read_restart after_heating_press_800000_5000.lmp  #<----->
# read_restart after_cooling_press_800000_2700.lmp

variable P equal 1000000     #<----->
variable dt equal 0.001
variable loopVar loop 2
variable sys_press equal "press/10000"

variable sim string "heating"  #<----->
# variable sim string "cooling"

pair_style eam/alloy
pair_coeff * * Co_Zhou04.eam.alloy Co
Reading eam/alloy potential file Co_Zhou04.eam.alloy with DATE: 2018-03-30

neighbor 2 bin
neigh_modify every 10 check yes

thermo 1000
thermo_style custom step temp vol press ke pe density

timestep $(dt)
timestep 0.0010000000000000000208

velocity all create 4700 123123 #<----->

print """
yo aagadi
"""

yo aagadi

label ensemble

print """
Label pachadi solti, hos garam.
"""

Label pachadi solti, hos garam.

variable T equal 4600+1*100
# variable T equal 2750

reset_timestep 0
fix 1 all npt temp $T $T $(dt*100) iso $P $P $(dt*1000)
fix 1 all npt temp 4700 $T $(dt*100) iso $P $P $(dt*1000)
fix 1 all npt temp 4700 4700 $(dt*100) iso $P $P $(dt*1000)
fix 1 all npt temp 4700 4700 0.10000000000000000555 iso $P $P $(dt*1000)
fix 1 all npt temp 4700 4700 0.10000000000000000555 iso 1000000 $P $(dt*1000)
fix 1 all npt temp 4700 4700 0.10000000000000000555 iso 1000000 1000000 $(dt*1000)
fix 1 all npt temp 4700 4700 0.10000000000000000555 iso 1000000 1000000 1
print """
<--------------------------------------------------------------------->
<------------------ Equilibrating at temperature $T ----------------->
<--------------------------------------------------------------------->
"""

<--------------------------------------------------------------------->
<------------------ Equilibrating at temperature 4700 ----------------->
<--------------------------------------------------------------------->

run 250000
Last active /omp style is pair_style eam/alloy/omp
  update every 10 steps, delay 10 steps, check yes
Step Temp Volume Press KinEng PotEng Density
0         4700    22790.356    65964.071    1243.5989    -9015.757        8.794
Averages over the last 126 of 251 rows, steps 125000 to 250000:
Temp Volume Press KinEng PotEng Density
4715.1 18365.1 999991 1247.59 -6952.92 10.9131
Loop time of 653.192 on 8 procs for 250000 steps with 2048 atoms

# fix 132 all momentum 100 linear 1 1 1 angular

# dump 3 all custom 1000 traj_npt_new.lammpstrj id type x y z
run 50000
Last active /omp style is pair_style eam/alloy/omp
Step Temp Volume Press KinEng PotEng Density
250000    4657.6312    18347.248    1010898.1    1232.3883   -6912.1087    10.923621
Averages over the last 26 of 51 rows, steps 275000 to 300000:
Temp Volume Press KinEng PotEng Density
4683.68 18361.7 1.00104e+06 1239.28 -6947.92 10.9151
Loop time of 118.75 on 8 procs for 50000 steps with 2048 atoms

unfix temp
unfix out_file_1

write_data after_heating_press_$P_$T.in
write_data after_heating_press_1000000_$T.in
write_data after_heating_press_1000000_4700.in
System init for write_data ...
Last active /omp style is pair_style eam/alloy/omp
write_restart after_heating_press_$P_$T.lmp
write_restart after_heating_press_1000000_$T.lmp
write_restart after_heating_press_1000000_4700.lmp
System init for write_restart ...
Last active /omp style is pair_style eam/alloy/omp

next loopVar  #<----->
jump in.lmp ensemble

print """
Label pachadi solti, hos garam.
"""

Label pachadi solti, hos garam.

variable T equal 4600+2*100
# variable T equal 2750

reset_timestep 0
fix 1 all npt temp $T $T $(dt*100) iso $P $P $(dt*1000)
fix 1 all npt temp 4800 $T $(dt*100) iso $P $P $(dt*1000)
fix 1 all npt temp 4800 4800 $(dt*100) iso $P $P $(dt*1000)
fix 1 all npt temp 4800 4800 0.10000000000000000555 iso $P $P $(dt*1000)
fix 1 all npt temp 4800 4800 0.10000000000000000555 iso 1000000 $P $(dt*1000)
fix 1 all npt temp 4800 4800 0.10000000000000000555 iso 1000000 1000000 $(dt*1000)
fix 1 all npt temp 4800 4800 0.10000000000000000555 iso 1000000 1000000 1
print """
<--------------------------------------------------------------------->
<------------------ Equilibrating at temperature $T ----------------->
<--------------------------------------------------------------------->
"""

<--------------------------------------------------------------------->
<------------------ Equilibrating at temperature 4800 ----------------->
<--------------------------------------------------------------------->

run 250000
Last active /omp style is pair_style eam/alloy/omp
Step Temp Volume Press KinEng PotEng Density
0    4839.4701    18365.765    999771.31    1280.5021   -6958.3604    10.912608
Averages over the last 126 of 251 rows, steps 125000 to 250000:
Temp Volume Press KinEng PotEng Density
4792.63 18398.8 1.00002e+06 1268.11 -6929.51 10.8931
Loop time of 595.269 on 8 procs for 250000 steps with 2048 atoms

# fix 132 all momentum 100 linear 1 1 1 angular

# dump 3 all custom 1000 traj_npt_new.lammpstrj id type x y z
run 50000
Last active /omp style is pair_style eam/alloy/omp
Step Temp Volume Press KinEng PotEng Density
250000    4719.2649     18436.95    997176.82    1248.6963   -6903.9871    10.870474
Averages over the last 26 of 51 rows, steps 275000 to 300000:
Temp Volume Press KinEng PotEng Density
4820.39 18385.7 1.00065e+06 1275.45 -6939.98 10.9009
Loop time of 124.753 on 8 procs for 50000 steps with 2048 atoms

unfix temp
unfix out_file_1

write_data after_heating_press_$P_$T.in
write_data after_heating_press_1000000_$T.in
write_data after_heating_press_1000000_4800.in
System init for write_data ...
Last active /omp style is pair_style eam/alloy/omp
write_restart after_heating_press_$P_$T.lmp
write_restart after_heating_press_1000000_$T.lmp
write_restart after_heating_press_1000000_4800.lmp
System init for write_restart ...
Last active /omp style is pair_style eam/alloy/omp

next loopVar  #<----->
jump in.lmp ensemble
